geometry optimzed in LAMMPS
_audit_creation_date              2020-12-01 
_audit_creation_method            'lammps2cif' 
_symmetry_space_group_name_H-M    'P1' 
_symmetry_Int_Tables_number       1 
_symmetry_cell_setting            triclinic 
loop_ 
_symmetry_equiv_pos_as_xyz 
  x,y,z 
_cell_length_a                    39.0174517 
_cell_length_b                    39.04351385261317 
_cell_length_c                    52.52833251841745 
_cell_angle_alpha                 89.75113648240372 
_cell_angle_beta                  90.06167489370152 
_cell_angle_gamma                 119.67768849927108 
loop_ 
_atom_site_label 
_atom_site_type_symbol 
_atom_site_fract_x 
_atom_site_fract_y 
_atom_site_fract_z 
_atom_site_charge 
In1        In  0.07797556  0.34669538  0.13200311     1.36900
C2          C  0.11543032  0.34804447  0.17460114     0.77200
O3          O  0.02180623  0.33095649  0.15254551    -0.61300
O4          O  0.02553807  0.28510040  0.13372192    -0.52200
C5          C  0.07596780  0.40927225  0.11360303     0.69800
O6          O  0.09261850  0.40972856  0.13427697    -0.47000
C7          C  0.11990585  0.33764112  0.09547466     0.74500
O8          O  0.11272860  0.37728478  0.16694223    -0.58900
O9          O  0.08267470  0.31874248  0.09571540    -0.49000
O10         O  0.09950608  0.31845043  0.16018161    -0.55300
C11         C  0.00570807  0.29460741  0.14802307     0.84700
O12         O  0.06001513  0.37650260  0.10233523    -0.57200
O13         O  0.13529820  0.36077172  0.11395796    -0.60500
In14       In  0.29579706  0.34059204  0.37451444     1.36900
C15         C  0.25549007  0.34378715  0.33462639     0.77200
O16         O  0.33407802  0.32223789  0.35351117    -0.61300
O17         O  0.28222941  0.27729377  0.37079308    -0.52200
C18         C  0.36417705  0.40143710  0.38930809     0.69800
O19         O  0.34730661  0.40111541  0.36873945    -0.47000
C20         C  0.24857470  0.33548897  0.41272391     0.74500
O21         O  0.28797445  0.37259700  0.34145624    -0.58900
O22         O  0.26479461  0.31439031  0.41188784    -0.49000
O23         O  0.24370835  0.31337751  0.34827359    -0.55300
C24         C  0.31195467  0.28583995  0.35710199     0.84700
O25         O  0.34624366  0.37010015  0.40229118    -0.57200
O26         O  0.25766633  0.35961399  0.39456253    -0.60500
In27       In  0.29166955  0.93597854  0.79561867     1.36900
C28         C  0.25170500  0.89267083  0.83591470     0.77200
O29         O  0.32858609  0.99266583  0.81591232    -0.61300
O30         O  0.27619105  0.98472481  0.79851929    -0.52200
C31         C  0.36221969  0.94941334  0.78044714     0.69800
O32         O  0.34735959  0.93417257  0.80173209    -0.47000
C33         C  0.24759152  0.89265429  0.75685208     0.74500
O34         O  0.28410676  0.89579629  0.82901150    -0.58900
O35         O  0.25635294  0.92819822  0.75978869    -0.49000
O36         O  0.23996849  0.91112724  0.82201176    -0.55300
C37         C  0.30571579  0.00623227  0.81217757     0.84700
O38         O  0.34107937  0.95852380  0.76693245    -0.57200
O39         O  0.26186536  0.87996276  0.77350294    -0.60500
In40       In  0.06742346  0.71614180  0.03845729     1.36900
C41         C  0.10301156  0.75083310  0.99492585     0.77200
O42         O  0.00616212  0.67493410  0.02428358    -0.61300
O43         O  0.01867289  0.73163056  0.03604366    -0.52200
C44         C  0.06461375  0.64916201  0.05301389     0.69800
O45         O  0.07551088  0.66393126  0.03109263    -0.47000
C46         C  0.11358658  0.76685120  0.07401558     0.74500
O47         O  0.10325590  0.72089897  0.00382905    -0.58900
O48         O  0.07648368  0.74769775  0.07614513    -0.49000
O49         O  0.08458661  0.76305455  0.00838575    -0.55300
C50         C  0.99417792  0.69941824  0.02599708     0.84700
O51         O  0.05467538  0.66854557  0.06748775    -0.57200
O52         O  0.12655597  0.75928769  0.05414664    -0.60500
In53       In  0.66466218  0.93765466  0.70465187     1.36900
C54         C  0.66213432  0.89744847  0.66324333     0.77200
O55         O  0.68492692  0.99578916  0.68516484    -0.61300
O56         O  0.72832400  0.98611265  0.70264918    -0.52200
C57         C  0.60496928  0.94659842  0.72014429     0.69800
O58         O  0.60313054  0.92670411  0.70081508    -0.47000
C59         C  0.66722206  0.89403339  0.74294892     0.74500
O60         O  0.63426041  0.90332850  0.66936391    -0.58900
O61         O  0.69257773  0.92999605  0.74030215    -0.49000
O62         O  0.69091826  0.91200289  0.67835198    -0.55300
C63         C  0.72105844  0.00875101  0.68939148     0.84700
O64         O  0.63785057  0.96250754  0.73146359    -0.57200
O65         O  0.64055993  0.88094264  0.72629352    -0.60500
In66       In  0.66724016  0.71602530  0.46415800     1.36900
C67         C  0.66492953  0.75462830  0.50490576     0.77200
O68         O  0.68498945  0.68165948  0.48973800    -0.61300
O69         O  0.72821011  0.72251637  0.46442288    -0.52200
C70         C  0.60644362  0.64875188  0.44771361     0.69800
O71         O  0.60504212  0.66673391  0.46716263    -0.47000
C72         C  0.67523296  0.76655724  0.42742870     0.74500
O73         O  0.63597590  0.72247258  0.49783583    -0.58900
O74         O  0.69763526  0.75189909  0.42914133    -0.49000
O75         O  0.69490276  0.76743833  0.49074360    -0.55300
C76         C  0.72029269  0.69808412  0.48233836     0.84700
O77         O  0.63937903  0.66520208  0.43645816    -0.57200
O78         O  0.64858593  0.75461442  0.44412614    -0.60500
In79       In  0.95087207  0.27648669  0.53678548     1.36900
C80         C  0.91394893  0.24548482  0.49296301     0.77200
O81         O  0.01249894  0.31821710  0.52369607    -0.61300
O82         O  0.99836765  0.25979853  0.53290963    -0.52200
C83         C  0.95744190  0.34481522  0.55148732     0.69800
O84         O  0.94483675  0.33014883  0.52981732    -0.47000
C85         C  0.90789399  0.22410158  0.57298866     0.74500
O86         O  0.90643908  0.26776828  0.50630462    -0.58900
O87         O  0.94488821  0.24496686  0.57441125    -0.49000
O88         O  0.94023780  0.23922810  0.50210159    -0.55300
C89         C  0.02390236  0.29317571  0.52458665     0.84700
O90         O  0.96664574  0.32440431  0.56561542    -0.57200
O91         O  0.89337964  0.23027122  0.55328943    -0.60500
In92       In  0.73117151  0.05920172  0.29420573     1.36900
C93         C  0.76911500  0.10288137  0.33461631     0.77200
O94         O  0.69230346  0.00127765  0.31353319    -0.61300
O95         O  0.74615651  0.01019163  0.29824236    -0.52200
C96         C  0.66370732  0.05226130  0.27678556     0.69800
O97         O  0.67987729  0.06950491  0.29725370    -0.47000
C98         C  0.77955863  0.10208272  0.25691142     0.74500
O99         O  0.73306377  0.09067058  0.33059355    -0.58900
O100        O  0.76985168  0.06633416  0.26035783    -0.49000
O101        O  0.78533957  0.09222853  0.31821317    -0.55300
C102        C  0.71551259  0.98794622  0.31078747     0.84700
O103        O  0.68223308  0.03831591  0.26491959    -0.57200
O104        O  0.76331790  0.11487651  0.27190270    -0.60500
In105      In  0.35199040  0.27984436  0.96113798     1.36900
C106        C  0.35606690  0.24581514  0.00401999     0.77200
O107        O  0.33260278  0.32054712  0.97729390    -0.61300
O108        O  0.28809412  0.26414919  0.96571507    -0.52200
C109        C  0.41569858  0.34409983  0.94376096     0.69800
O110        O  0.41486018  0.32776809  0.96469655    -0.47000
C111        C  0.34376575  0.22837274  0.92551611     0.74500
O112        O  0.38185035  0.28043536  0.99792485    -0.58900
O113        O  0.32713539  0.24902552  0.92381595    -0.49000
O114        O  0.32850822  0.22892104  0.98814678    -0.55300
C115        C  0.29628915  0.29618094  0.97628931     0.84700
O116        O  0.38371971  0.32730942  0.93145741    -0.57200
O117        O  0.36513979  0.23511296  0.94491966    -0.60500
In118      In  0.35577335  0.06041536  0.20361206     1.36900
C119        C  0.35891861  0.10327948  0.16327324     0.77200
O120        O  0.33844411  0.00551243  0.18113787    -0.61300
O121        O  0.29307022  0.01005061  0.20024585    -0.52200
C122        C  0.41694435  0.05208061  0.21806912     0.69800
O123        O  0.41675634  0.06970825  0.19795161    -0.47000
C124        C  0.34803049  0.10160068  0.24158092     0.74500
O125        O  0.38944595  0.10574604  0.17330152    -0.58900
O126        O  0.32793222  0.06442659  0.24086671    -0.49000
O127        O  0.32709806  0.07911890  0.17402598    -0.55300
C128        C  0.30201504  0.99030665  0.18542938     0.84700
O129        O  0.38533572  0.03806038  0.23078818    -0.57200
O130        O  0.37177352  0.11673540  0.22333251    -0.60500
In131      In  0.72710611  0.65367686  0.86971347     1.36900
C132        C  0.76657213  0.65242952  0.82850335     0.77200
O133        O  0.68815647  0.66831228  0.84612792    -0.61300
O134        O  0.73181375  0.71404509  0.86849061    -0.52200
C135        C  0.66065715  0.59095799  0.88578272     0.69800
O136        O  0.67772730  0.59175348  0.86527538    -0.47000
C137        C  0.77655735  0.66185931  0.90765963     0.74500
O138        O  0.73641905  0.62238228  0.83700767    -0.58900
O139        O  0.75973506  0.68235881  0.90629562    -0.49000
O140        O  0.77705663  0.68325684  0.84140960    -0.55300
C141        C  0.70471116  0.70411288  0.85221494     0.84700
O142        O  0.67755278  0.62264390  0.89826023    -0.57200
O143        O  0.76801793  0.63767687  0.88971355    -0.60500
In144      In  0.95366639  0.65261047  0.62853821     1.36900
C145        C  0.90926977  0.64971345  0.66831385     0.77200
O146        O  0.00293227  0.66999904  0.65633025    -0.61300
O147        O  0.01358693  0.70878290  0.62539870    -0.52200
C148        C  0.96086460  0.59189384  0.61185812     0.69800
O149        O  0.94438577  0.59146902  0.63257748    -0.47000
C150        C  0.91214151  0.66189230  0.59126958     0.74500
O151        O  0.91211135  0.62047118  0.66109688    -0.58900
O152        O  0.94405185  0.69014665  0.59949213    -0.49000
O153        O  0.92854198  0.68018499  0.65485835    -0.55300
C154        C  0.02651196  0.70220385  0.64582059     0.84700
O155        O  0.97439895  0.62392015  0.59959890    -0.57200
O156        O  0.90226667  0.62923844  0.60179630    -0.60500
C157        C  0.79203766  0.61562664  0.76867147    -0.11200
C158        C  0.82595630  0.64958824  0.75992288     0.05900
C159        C  0.84057790  0.68438119  0.77432632    -0.10000
C160        C  0.82152134  0.68530801  0.79668416    -0.11600
C161        C  0.78745889  0.65143414  0.80521330    -0.01400
C162        C  0.77303761  0.61655945  0.79103446    -0.10500
C163        C  0.84591956  0.64883952  0.73586267     0.05900
H164        H  0.86702262  0.71090232  0.76842428     0.07800
H165        H  0.83341627  0.71256207  0.80727357     0.11300
H166        H  0.74674944  0.58998991  0.79709950     0.11600
H167        H  0.77969014  0.58846612  0.75796720     0.07900
C168        C  0.84960092  0.61582342  0.72946556    -0.11200
C169        C  0.86942190  0.61574746  0.70725217    -0.10500
C170        C  0.88612719  0.64871030  0.69095927    -0.01400
C171        C  0.88176970  0.68135001  0.69701918    -0.11600
C172        C  0.86184947  0.68138943  0.71915945    -0.10000
H173        H  0.83801647  0.59037174  0.74195952     0.07900
H174        H  0.87238413  0.59018934  0.70310199     0.11600
H175        H  0.89407022  0.70706602  0.68472640     0.11300
H176        H  0.85886045  0.70695803  0.72317559     0.07900
C177        C  0.51670007  0.43550589  0.94325195    -0.11200
C178        C  0.51869013  0.45045386  0.91858962     0.05900
C179        C  0.48656250  0.42970643  0.90203055    -0.10000
C180        C  0.45307430  0.39502785  0.91008575    -0.11600
C181        C  0.45118780  0.38025101  0.93478473    -0.01400
C182        C  0.48343731  0.40071853  0.95120339    -0.10500
C183        C  0.55452267  0.48707770  0.91008362     0.05900
H184        H  0.48711202  0.44059654  0.88295906     0.07800
H185        H  0.42866541  0.37981816  0.89702033     0.11300
H186        H  0.48285156  0.38999410  0.97032692     0.11600
H187        H  0.54116047  0.45041765  0.95630842     0.07900
C188        C  0.57380578  0.51969084  0.92641899    -0.11200
C189        C  0.60813478  0.55369032  0.91853471    -0.10500
C190        C  0.62398845  0.55562210  0.89423599    -0.01400
C191        C  0.60467995  0.52312520  0.87791863    -0.11600
C192        C  0.57027790  0.48932753  0.88570347    -0.10000
H193        H  0.56217704  0.51898908  0.94523796     0.07900
H194        H  0.62242435  0.57832620  0.93150232     0.11600
H195        H  0.61625055  0.52375853  0.85908797     0.11300
H196        H  0.55645110  0.46457321  0.87280741     0.07900
C197        C  0.38648185  0.22865087  0.06917030    -0.11200
C198        C  0.36042719  0.18812621  0.07264763     0.05900
C199        C  0.33334480  0.16690459  0.05330697    -0.10000
C200        C  0.33194696  0.18580615  0.03108939    -0.11600
C201        C  0.35783568  0.22628269  0.02763439    -0.01400
C202        C  0.38519017  0.24758662  0.04681249    -0.10500
C203        C  0.36067487  0.16784822  0.09647973     0.05900
H204        H  0.31332769  0.13551296  0.05530271     0.07800
H205        H  0.31075039  0.16865218  0.01652299     0.11300
H206        H  0.40533556  0.27890916  0.04460871     0.11600
H207        H  0.40734850  0.24575971  0.08389472     0.07900
C208        C  0.39628485  0.17481539  0.10769026    -0.11200
C209        C  0.39591806  0.15410960  0.12960750    -0.10500
C210        C  0.35994562  0.12632436  0.14069076    -0.01400
C211        C  0.32448280  0.12004456  0.12976421    -0.11600
C212        C  0.32484127  0.14054434  0.10789968    -0.10000
H213        H  0.42432825  0.19556228  0.09917417     0.07900
H214        H  0.42368220  0.15952378  0.13772406     0.11600
H215        H  0.29633821  0.09895090  0.13798784     0.11300
H216        H  0.29698348  0.13508145  0.09992335     0.07900
C217        C  0.48482031  0.02840338  0.25692728    -0.11200
C218        C  0.51917843  0.04509535  0.24188679     0.05900
C219        C  0.51924265  0.06320067  0.21871007    -0.10000
C220        C  0.48592611  0.06519290  0.21094555    -0.11600
C221        C  0.45165487  0.04875565  0.22605946    -0.01400
C222        C  0.45132842  0.03003517  0.24903401    -0.10500
C223        C  0.55542922  0.04525748  0.25087127     0.05900
H224        H  0.54544735  0.07670224  0.20690502     0.07800
H225        H  0.48713445  0.07994825  0.19319047     0.11300
H226        H  0.42535827  0.01707501  0.26105413     0.11600
H227        H  0.48393018  0.01411620  0.27482349     0.07900
C228        C  0.56936826  0.05765764  0.27567363    -0.11200
C229        C  0.60444274  0.05978278  0.28395389    -0.10500
C230        C  0.62615777  0.04899241  0.26776965    -0.01400
C231        C  0.61188811  0.03582291  0.24308739    -0.11600
C232        C  0.57701297  0.03430112  0.23463892    -0.10000
H233        H  0.55356056  0.06662350  0.28849567     0.07900
H234        H  0.61463890  0.07000592  0.30308230     0.11600
H235        H  0.62798681  0.02728919  0.23020825     0.11300
H236        H  0.56679959  0.02445501  0.21545796     0.07900
C237        C  0.97919711  0.43365500  0.59172793    -0.11200
C238        C  0.96470879  0.45327931  0.57636634     0.05900
C239        C  0.94884023  0.43737450  0.55239086    -0.10000
C240        C  0.94699679  0.40245567  0.54414433    -0.11600
C241        C  0.96085779  0.38258326  0.55972238    -0.01400
C242        C  0.97730383  0.39872143  0.58348719    -0.10500
C243        C  0.96520568  0.48959256  0.58555880     0.05900
H244        H  0.93697084  0.45143871  0.54022293     0.07800
H245        H  0.93412557  0.39066802  0.52573695     0.11300
H246        H  0.98849302  0.38418521  0.59581412     0.11600
H247        H  0.99212658  0.44538753  0.61012208     0.07900
C248        C  0.95581366  0.49246392  0.61101211    -0.11200
C249        C  0.95475437  0.52583727  0.61948876    -0.10500
C250        C  0.96343816  0.55734354  0.60281459    -0.01400
C251        C  0.97344030  0.55489071  0.57747361    -0.11600
C252        C  0.97414716  0.52129088  0.56890411    -0.10000
H253        H  0.94830508  0.46845452  0.62427022     0.07900
H254        H  0.94692241  0.52689680  0.63912416     0.11600
H255        H  0.98016986  0.57869816  0.56419407     0.11300
H256        H  0.98190527  0.52020581  0.54926304     0.07900
C257        C  0.84548562  0.21841695  0.43604442    -0.11200
C258        C  0.85405777  0.19214606  0.42302853     0.05900
C259        C  0.88285295  0.18423481  0.43302281    -0.10000
C260        C  0.90239017  0.20184101  0.45560848    -0.11600
C261        C  0.89362873  0.22779564  0.46875296    -0.01400
C262        C  0.86515347  0.23614295  0.45869654    -0.10500
C263        C  0.83243745  0.17191679  0.39953714     0.05900
H264        H  0.88967610  0.16367242  0.42365712     0.07800
H265        H  0.92411783  0.19476497  0.46293957     0.11300
H266        H  0.85795655  0.25618999  0.46840422     0.11600
H267        H  0.82366400  0.22532042  0.42865598     0.07900
C268        C  0.79128653  0.15557993  0.39796673    -0.11200
C269        C  0.77063625  0.13361748  0.37666251    -0.10500
C270        C  0.79076840  0.12756057  0.35660162    -0.01400
C271        C  0.83198061  0.14486252  0.35782108    -0.11600
C272        C  0.85260003  0.16687689  0.37902945    -0.10000
H273        H  0.77493147  0.15868859  0.41356840     0.07900
H274        H  0.73884740  0.12063014  0.37614295     0.11600
H275        H  0.84828820  0.14108074  0.34245509     0.11300
H276        H  0.88437112  0.17968174  0.37951245     0.07900
C277        C  0.66387553  0.89112517  0.34627324    -0.11200
C278        C  0.69556479  0.88537874  0.35312748     0.05900
C279        C  0.73330516  0.91159172  0.34332469    -0.10000
C280        C  0.73942550  0.94367944  0.32810188    -0.11600
C281        C  0.70811337  0.95059077  0.32275004    -0.01400
C282        C  0.67016928  0.92356733  0.33151088    -0.10500
C283        C  0.68959396  0.85366871  0.37154180     0.05900
H284        H  0.75853901  0.90850572  0.34834383     0.07800
H285        H  0.76904768  0.96428594  0.32171939     0.11300
H286        H  0.64546348  0.92806606  0.32746709     0.11600
H287        H  0.63418633  0.87098568  0.35273217     0.07900
C288        C  0.66196804  0.84311194  0.39143828    -0.11200
C289        C  0.65700036  0.81438432  0.40924234    -0.10500
C290        C  0.67987467  0.79582530  0.40787868    -0.01400
C291        C  0.70751075  0.80615724  0.38813436    -0.11600
C292        C  0.71215677  0.83460868  0.37005294    -0.10000
H293        H  0.64473905  0.85769735  0.39371906     0.07900
H294        H  0.63567328  0.80722827  0.42441245     0.11600
H295        H  0.72546832  0.79221079  0.38664422     0.11300
H296        H  0.73331216  0.84148093  0.35484928     0.07900
C297        C  0.82743768  0.63729441  0.54612546    -0.11200
C298        C  0.83585959  0.67476202  0.53737442     0.05900
C299        C  0.87135094  0.70786362  0.54505073    -0.10000
C300        C  0.89690190  0.70370517  0.56196274    -0.11600
C301        C  0.88746034  0.66638104  0.57152724    -0.01400
C302        C  0.85285337  0.63317925  0.56303167    -0.10500
C303        C  0.80640626  0.67935518  0.52182410     0.05900
H304        H  0.87860620  0.73716878  0.53884145     0.07800
H305        H  0.92339348  0.72979328  0.56815856     0.11300
H306        H  0.84494421  0.60397347  0.56987796     0.11600
H307        H  0.80080287  0.61111043  0.54020376     0.07900
C308        C  0.81814849  0.70721320  0.50193110    -0.11200
C309        C  0.79011966  0.71259178  0.48843409    -0.10500
C310        C  0.74988191  0.69031235  0.49464308    -0.01400
C311        C  0.73814394  0.66209387  0.51419192    -0.11600
C312        C  0.76600579  0.65668470  0.52759790    -0.10000
H313        H  0.84899081  0.72493611  0.49688037     0.07900
H314        H  0.79999336  0.73472340  0.47352447     0.11600
H315        H  0.70738002  0.64471092  0.51955515     0.11300
H316        H  0.75592146  0.63552070  0.54309162     0.07900
C317        C  0.70682678  0.85449327  0.79410254    -0.11200
C318        C  0.67496597  0.81607563  0.79772217     0.05900
C319        C  0.63941761  0.80509575  0.78479012    -0.10000
C320        C  0.63655829  0.83102012  0.76763370    -0.11600
C321        C  0.66898234  0.86866451  0.76323495    -0.01400
C322        C  0.70378892  0.88058672  0.77712311    -0.10500
C323        C  0.67978016  0.78674441  0.81333660     0.05900
H324        H  0.61400293  0.77613711  0.78753249     0.07800
H325        H  0.60917710  0.82126216  0.75737377     0.11300
H326        H  0.72922493  0.90943529  0.77403973     0.11600
H327        H  0.73477721  0.86386736  0.80348770     0.07900
C328        C  0.66264153  0.74731816  0.80533567    -0.11200
C329        C  0.66965867  0.72032484  0.81861228    -0.10500
C330        C  0.69428796  0.73206250  0.84009658    -0.01400
C331        C  0.71071530  0.77112717  0.84855474    -0.11600
C332        C  0.70337058  0.79814325  0.83538726    -0.10000
H333        H  0.64496118  0.73755473  0.78820275     0.07900
H334        H  0.65684499  0.69048075  0.81148379     0.11600
H335        H  0.72974433  0.78094484  0.86508339     0.11300
H336        H  0.71657661  0.82810316  0.84231043     0.07900
C337        C  0.62961891  0.77794934  0.56590593    -0.11200
C338        C  0.66241501  0.81408809  0.57277616     0.05900
C339        C  0.69600618  0.83051248  0.55704282    -0.10000
C340        C  0.69677154  0.81125515  0.53491258    -0.11600
C341        C  0.66393548  0.77525048  0.52805106    -0.01400
C342        C  0.63037236  0.75872527  0.54373451    -0.10500
C343        C  0.66173260  0.83470148  0.59623973     0.05900
H344        H  0.72154705  0.85856945  0.56165945     0.07800
H345        H  0.72303268  0.82459486  0.52314399     0.11300
H346        H  0.60476238  0.73080609  0.53894426     0.11600
H347        H  0.60356351  0.76429706  0.57784168     0.07900
C348        C  0.62773056  0.83625811  0.60321837    -0.11200
C349        C  0.62766966  0.85661024  0.62504942    -0.10500
C350        C  0.66154003  0.87556209  0.64031010    -0.01400
C351        C  0.69531426  0.87367067  0.63347780    -0.11600
C352        C  0.69542356  0.85347986  0.61168434    -0.10000
H353        H  0.60145103  0.82239833  0.59153957     0.07900
H354        H  0.60122491  0.85763700  0.62993918     0.11600
H355        H  0.72179014  0.88795348  0.64494840     0.11300
H356        H  0.72184835  0.85229106  0.60703475     0.07900
C357        C  0.81864570  0.08536904  0.66129737    -0.11200
C358        C  0.80747191  0.10999545  0.64848578     0.05900
C359        C  0.76920545  0.10396615  0.65216254    -0.10000
C360        C  0.74177266  0.07232397  0.66681445    -0.11600
C361        C  0.75207166  0.04610000  0.67819725    -0.01400
C362        C  0.79112293  0.05365131  0.67606857    -0.10500
C363        C  0.83401522  0.13944997  0.62948445     0.05900
H364        H  0.76005023  0.12298688  0.64288222     0.07800
H365        H  0.71201695  0.06741945  0.66835760     0.11300
H366        H  0.79978298  0.03375906  0.68461843     0.11600
H367        H  0.84789127  0.08929501  0.65873231     0.07900
C368        C  0.87410922  0.16522680  0.63468180    -0.11200
C369        C  0.89850007  0.19277465  0.61633326    -0.10500
C370        C  0.88313191  0.19479768  0.59249288    -0.01400
C371        C  0.84323629  0.16860654  0.58727534    -0.11600
C372        C  0.81900650  0.14126857  0.60550732    -0.10000
H373        H  0.88641203  0.16439823  0.65305150     0.07900
H374        H  0.92914673  0.21266397  0.62083675     0.11600
H375        H  0.83064682  0.16917700  0.56896815     0.11300
H376        H  0.78847943  0.12121185  0.60076205     0.07900
C377        C  0.25762544  0.89592373  0.14747156    -0.11200
C378        C  0.21845314  0.88757477  0.14425277     0.05900
C379        C  0.20623704  0.91179546  0.15638925    -0.10000
C380        C  0.23300634  0.94437646  0.17069403    -0.11600
C381        C  0.27249289  0.95344844  0.17302030    -0.01400
C382        C  0.28438695  0.92861110  0.16154806    -0.10500
C383        C  0.19136412  0.85533960  0.12697158     0.05900
H384        H  0.17644822  0.90646193  0.15401808     0.07800
H385        H  0.22319452  0.96335501  0.17911237     0.11300
H386        H  0.31459225  0.93485143  0.16310675     0.11600
H387        H  0.26780676  0.87747360  0.13871610     0.07900
C388        C  0.20544729  0.84978704  0.10361671    -0.11200
C389        C  0.18016014  0.82066065  0.08675126    -0.10500
C390        C  0.14008686  0.79642059  0.09269830    -0.01400
C391        C  0.12585458  0.80158698  0.11610131    -0.11600
C392        C  0.15129503  0.83078509  0.13309602    -0.10000
H393        H  0.23589853  0.86861595  0.09808134     0.07900
H394        H  0.19194527  0.81759130  0.06874824     0.11600
H395        H  0.09513722  0.78323330  0.12118173     0.11300
H396        H  0.13963613  0.83413883  0.15106508     0.07900
C397        C  0.91646790  0.71711510  0.99515193    -0.11200
C398        C  0.89049365  0.67959318  0.98518721     0.05900
C399        C  0.89631349  0.64789454  0.99184424    -0.10000
C400        C  0.92877674  0.65399816  0.00649955    -0.11600
C401        C  0.95605326  0.69188157  0.01508614    -0.01400
C402        C  0.94890093  0.72317291  0.01000398    -0.10500
C403        C  0.85966010  0.67400597  0.96619660     0.05900
H404        H  0.87639535  0.61845408  0.98501376     0.07800
H405        H  0.93339320  0.62929065  0.01024470     0.11300
H406        H  0.96960381  0.75276385  0.01624596     0.11600
H407        H  0.91302400  0.74221145  0.99031069     0.07900
C408        C  0.83772748  0.69363067  0.96844111    -0.11200
C409        C  0.81032101  0.68950357  0.94962972    -0.10500
C410        C  0.80435559  0.66570577  0.92821359    -0.01400
C411        C  0.82580827  0.64568667  0.92621537    -0.11600
C412        C  0.85315410  0.64988527  0.94486361    -0.10000
H413        H  0.84176037  0.71215908  0.98473015     0.07900
H414        H  0.79398199  0.70505598  0.95175806     0.11600
H415        H  0.82200849  0.62723895  0.90991120     0.11300
H416        H  0.86999811  0.63495682  0.94218927     0.07900
C417        C  0.18859799  0.80305681  0.71564296    -0.11200
C418        C  0.16642135  0.81475964  0.70043822     0.05900
C419        C  0.17411976  0.85393720  0.70235987    -0.10000
C420        C  0.20165297  0.87991803  0.72000172    -0.11600
C421        C  0.22188512  0.86721891  0.73616550    -0.01400
C422        C  0.21572591  0.82882985  0.73337734    -0.10500
C423        C  0.13311822  0.78523881  0.68453030     0.05900
H424        H  0.15753584  0.86402096  0.69115670     0.07800
H425        H  0.20595137  0.90943503  0.72167637     0.11300
H426        H  0.23127028  0.81834864  0.74532656     0.11600
H427        H  0.18440157  0.77356320  0.71426350     0.07900
C428        C  0.12250557  0.79578999  0.66133629    -0.11200
C429        C  0.08874799  0.76847895  0.64799362    -0.10500
C430        C  0.06496974  0.73011211  0.65757274    -0.01400
C431        C  0.07647557  0.71921301  0.68014028    -0.11600
C432        C  0.10989784  0.74633534  0.69344384    -0.10000
H433        H  0.13992758  0.82527682  0.65368427     0.07900
H434        H  0.08060638  0.77772615  0.63061861     0.11600
H435        H  0.05878799  0.68994238  0.68808197     0.11300
H436        H  0.11643632  0.73709101  0.71140340     0.07900
C437        C  0.44909818  0.96897383  0.73851895    -0.11200
C438        C  0.47089414  0.95839353  0.75487467     0.05900
C439        C  0.45801138  0.94732472  0.78003607    -0.10000
C440        C  0.42320040  0.94545282  0.78846523    -0.11600
C441        C  0.40073829  0.95492991  0.77196058    -0.01400
C442        C  0.41441006  0.96750862  0.74704839    -0.10500
C443        C  0.50587923  0.95690779  0.74550184     0.05900
H444        H  0.47417247  0.93877935  0.79293499     0.07800
H445        H  0.41341006  0.93573247  0.80776467     0.11300
H446        H  0.39773450  0.97513016  0.73396308     0.11600
H447        H  0.45870768  0.97793485  0.71908688     0.07900
C448        C  0.50367184  0.93683679  0.72291575    -0.11200
C449        C  0.53593636  0.93351747  0.71469907    -0.10500
C450        C  0.57114886  0.95058518  0.72877945    -0.01400
C451        C  0.57348699  0.97095464  0.75125831    -0.11600
C452        C  0.54104027  0.97390422  0.75962285    -0.10000
H453        H  0.47666412  0.92297893  0.71192532     0.07900
H454        H  0.53326596  0.91746346  0.69736269     0.11600
H455        H  0.60026289  0.98430851  0.76248229     0.11300
H456        H  0.54338722  0.98953007  0.77709775     0.07900
C457        C  0.31520534  0.16578840  0.86588909    -0.11200
C458        C  0.32784031  0.13874717  0.87209717     0.05900
C459        C  0.34539278  0.14147186  0.89591705    -0.10000
C460        C  0.35069631  0.17082556  0.91304240    -0.11600
C461        C  0.33834775  0.19801407  0.90685021    -0.01400
C462        C  0.32041864  0.19524636  0.88316447    -0.10500
C463        C  0.32309313  0.10759835  0.85406493     0.05900
H464        H  0.35470918  0.12058113  0.90141709     0.07800
H465        H  0.36416114  0.17196990  0.93131393     0.11300
H466        H  0.31067229  0.21591096  0.87798481     0.11600
H467        H  0.30176961  0.16441520  0.84758337     0.07900
C468        C  0.28728229  0.08437364  0.84121879    -0.11200
C469        C  0.28198912  0.05231884  0.82639629    -0.10500
C470        C  0.31244712  0.04314292  0.82423988    -0.01400
C471        C  0.34871784  0.06750447  0.83614598    -0.11600
C472        C  0.35400050  0.09938274  0.85083037    -0.10000
H473        H  0.26291522  0.08995475  0.84353138     0.07900
H474        H  0.25360555  0.03375220  0.81756790     0.11600
H475        H  0.37273903  0.06123245  0.83472124     0.11300
H476        H  0.38213149  0.11720936  0.86014830     0.07900
C477        C  0.14485751  0.82420566  0.94050763    -0.11200
C478        C  0.16406017  0.80854694  0.92589344     0.05900
C479        C  0.16185709  0.77310272  0.93388607    -0.10000
C480        C  0.14160723  0.75416639  0.95614726    -0.11600
C481        C  0.12304374  0.77018335  0.97090090    -0.01400
C482        C  0.12449074  0.80517243  0.96273864    -0.10500
C483        C  0.18637596  0.82917800  0.90248768     0.05900
H484        H  0.17561811  0.75983538  0.92283826     0.07800
H485        H  0.14065685  0.72703425  0.96188804     0.11300
H486        H  0.11040295  0.81817591  0.97375288     0.11600
H487        H  0.14627186  0.85166422  0.93506515     0.07900
C488        C  0.17196395  0.84768732  0.88612621    -0.11200
C489        C  0.19311944  0.86781426  0.86444297    -0.10500
C490        C  0.22919880  0.86992231  0.85849933    -0.01400
C491        C  0.24355640  0.85105497  0.87458158    -0.11600
C492        C  0.22235364  0.83088933  0.89638274    -0.10000
H493        H  0.14408283  0.84638405  0.88996641     0.07900
H494        H  0.18122204  0.88192899  0.85234485     0.11600
H495        H  0.27136439  0.85231027  0.87048822     0.11300
H496        H  0.23453362  0.81732625  0.90873445     0.07900
C497        C  0.12424166  0.34727774  0.49365282    -0.11200
C498        C  0.13072849  0.31604603  0.48711067     0.05900
C499        C  0.10427378  0.27796125  0.49621445    -0.10000
C500        C  0.07070001  0.27087884  0.51001499    -0.11600
C501        C  0.06284272  0.30167377  0.51482373    -0.01400
C502        C  0.09060508  0.34014884  0.50729288    -0.10500
C503        C  0.16286094  0.32258548  0.46909174     0.05900
H504        H  0.10824834  0.25323029  0.49143560     0.07800
H505        H  0.04974463  0.24091395  0.51560259     0.11300
H506        H  0.08548726  0.36450910  0.51099148     0.11600
H507        H  0.14455254  0.37712259  0.48748778     0.07900
C508        C  0.17102789  0.34779745  0.44800773    -0.11200
C509        C  0.19944903  0.35246222  0.43011025    -0.10500
C510        C  0.22027335  0.33186044  0.43270311    -0.01400
C511        C  0.21253079  0.30690730  0.45383176    -0.11600
C512        C  0.18412900  0.30236451  0.47188496    -0.10000
H513        H  0.15463244  0.36311682  0.44490223     0.07900
H514        H  0.20449746  0.37162852  0.41387448     0.11600
H515        H  0.22816545  0.29069622  0.45627695     0.11300
H516        H  0.17873207  0.28292910  0.48800182     0.07900
C517        C  0.36279254  0.24085512  0.32015882    -0.11200
C518        C  0.33200767  0.20199456  0.31629842     0.05900
C519        C  0.29549111  0.18997292  0.32828389    -0.10000
C520        C  0.28943622  0.21671327  0.34265504    -0.11600
C521        C  0.31961902  0.25605103  0.34513463    -0.01400
C522        C  0.35654287  0.26762434  0.33414574    -0.10500
C523        C  0.33715537  0.17552420  0.29814176     0.05900
H524        H  0.27099821  0.16049690  0.32558482     0.07800
H525        H  0.26057926  0.20708690  0.35083155     0.11300
H526        H  0.38043801  0.29767739  0.33592720     0.11600
H527        H  0.39165051  0.25097359  0.31185666     0.07900
C528        C  0.35984031  0.19150013  0.27597638    -0.11200
C529        C  0.36355456  0.16729279  0.25808223    -0.10500
C530        C  0.34435810  0.12627674  0.26155195    -0.01400
C531        C  0.32179646  0.10993011  0.28370282    -0.11600
C532        C  0.31835666  0.13436928  0.30189354    -0.10000
H533        H  0.37394014  0.22276475  0.27197292     0.07900
H534        H  0.38096329  0.18080964  0.24113135     0.11600
H535        H  0.30685075  0.07840827  0.28691561     0.11300
H536        H  0.30096269  0.12103091  0.31886686     0.07900
C537        C  0.53958208  0.55996978  0.40745125    -0.11200
C538        C  0.50554697  0.54111878  0.42272888     0.05900
C539        C  0.50520373  0.55781986  0.44628574    -0.10000
C540        C  0.53803093  0.59278244  0.45430263    -0.11600
C541        C  0.57208369  0.61158384  0.43907317    -0.01400
C542        C  0.57264498  0.59475546  0.41561860    -0.10500
C543        C  0.47019958  0.50457645  0.41394817     0.05900
H544        H  0.47923566  0.54418515  0.45830710     0.07800
H545        H  0.53674016  0.60512324  0.47246720     0.11300
H546        H  0.59849395  0.60864580  0.40350698     0.11600
H547        H  0.54070383  0.54758041  0.38927686     0.07900
C548        C  0.45618445  0.50200099  0.38899475    -0.11200
C549        C  0.42206331  0.46823236  0.38093518    -0.10500
C550        C  0.40142612  0.43614532  0.39757665    -0.01400
C551        C  0.41586182  0.43832160  0.42237410    -0.11600
C552        C  0.44976740  0.47233631  0.43054413    -0.10000
H553        H  0.47112230  0.52651897  0.37588702     0.07900
H554        H  0.41160638  0.46739481  0.36172452     0.11600
H555        H  0.40052996  0.41404120  0.43559953     0.11300
H556        H  0.46012096  0.47342693  0.44981666     0.07900
C557        C  0.25217406  0.34842385  0.01218046    -0.11200
C558        C  0.21504193  0.31705601  0.01919330     0.05900
C559        C  0.20303538  0.27930906  0.00933416    -0.10000
C560        C  0.22855388  0.27280255  0.99393910    -0.11600
C561        C  0.26653583  0.30386726  0.98826231    -0.01400
C562        C  0.27766479  0.34187810  0.99698139    -0.10500
C563        C  0.19028951  0.32334139  0.03804556     0.05900
H564        H  0.17476315  0.25447667  0.01451938     0.07800
H565        H  0.21935416  0.24309666  0.98760909     0.11300
H566        H  0.30666691  0.36636439  0.99278119     0.11600
H567        H  0.26197536  0.37801414  0.01897695     0.07900
C568        C  0.20801624  0.34781831  0.05919737    -0.11200
C569        C  0.18506531  0.35274266  0.07759134    -0.10500
C570        C  0.14383600  0.33315592  0.07540153    -0.01400
C571        C  0.12596658  0.30908365  0.05415520    -0.11600
C572        C  0.14900131  0.30421426  0.03564679    -0.10000
H573        H  0.23962896  0.36244824  0.06188984     0.07900
H574        H  0.19965469  0.37147179  0.09380827     0.11600
H575        H  0.09425432  0.29389442  0.05192922     0.11300
H576        H  0.13450111  0.28551927  0.01941728     0.07900
C577        C  0.05643645  0.47617239  0.07084002    -0.11200
C578        C  0.06967098  0.50993250  0.08607358     0.05900
C579        C  0.08624050  0.51067756  0.10997884    -0.10000
C580        C  0.08897095  0.47823594  0.11864512    -0.11600
C581        C  0.07483770  0.44416739  0.10371006    -0.01400
C582        C  0.05888035  0.44353475  0.07961921    -0.10500
C583        C  0.06647287  0.54443797  0.07716407     0.05900
H584        H  0.09735689  0.53652112  0.12193329     0.07800
H585        H  0.10166394  0.47963536  0.13721722     0.11300
H586        H  0.04795543  0.41769090  0.06767067     0.11600
H587        H  0.04345354  0.47470834  0.05237134     0.07900
C588        C  0.07643116  0.55836304  0.05203277    -0.11200
C589        C  0.07535759  0.59210043  0.04410159    -0.10500
C590        C  0.06406362  0.61247718  0.06108761    -0.01400
C591        C  0.05317344  0.59800392  0.08601762    -0.11600
C592        C  0.05441984  0.56439418  0.09398092    -0.10000
H593        H  0.08608627  0.54378359  0.03869627     0.07900
H594        H  0.08388352  0.60254820  0.02475500     0.11600
H595        H  0.04413792  0.61295045  0.09948071    -0.01900
H596        H  0.04598153  0.55400327  0.11334551     0.07900
C597        C  0.91949933  0.25013253  0.19337357    -0.11200
C598        C  0.90135193  0.20962819  0.18771455     0.05900
C599        C  0.91670846  0.19773055  0.16746016    -0.10000
C600        C  0.94995658  0.22540254  0.15390968    -0.11600
C601        C  0.96809393  0.26561045  0.15999348    -0.01400
C602        C  0.95205748  0.27770613  0.17951537    -0.10500
C603        C  0.86774657  0.18027983  0.20363084     0.05900
H604        H  0.90329841  0.16702903  0.16210813     0.07800
H605        H  0.96183161  0.21528867  0.13895511     0.11300
H606        H  0.96573439  0.30847522  0.18486025     0.11600
H607        H  0.90964159  0.26073472  0.20917536     0.07900
C608        C  0.86188182  0.14206288  0.20798306    -0.11200
C609        C  0.83229421  0.11594889  0.22461311    -0.10500
C610        C  0.80836569  0.12768819  0.23752167    -0.01400
C611        C  0.81348260  0.16530562  0.23278009    -0.11600
C612        C  0.84232873  0.19101041  0.21580983    -0.10000
H613        H  0.88099611  0.13265767  0.19934628     0.07900
H614        H  0.82905110  0.08713336  0.22803545     0.11600
H615        H  0.79522551  0.17504476  0.24232732     0.11300
H616        H  0.84471488  0.21944725  0.21243899     0.07900
C617        C  0.22853347  0.38044358  0.27538531    -0.11200
C618        C  0.19254767  0.34742484  0.26849065     0.05900
C619        C  0.17670335  0.31369381  0.28413362    -0.10000
C620        C  0.19688323  0.31267288  0.30585339    -0.11600
C621        C  0.23327201  0.34539776  0.31236420    -0.01400
C622        C  0.24867898  0.37942346  0.29711311    -0.10500
C623        C  0.17238281  0.34767703  0.24458506     0.05900
H624        H  0.14869898  0.28801268  0.27952743     0.07800
H625        H  0.18420847  0.28616306  0.31740233     0.11300
H626        H  0.27669282  0.40507406  0.30173269     0.11600
H627        H  0.24168043  0.40667283  0.26359188     0.07900
C628        C  0.17067187  0.38138852  0.23701703    -0.11200
C629        C  0.15227780  0.38163707  0.21420865    -0.10500
C630        C  0.13531508  0.34819851  0.19854056    -0.01400
C631        C  0.13706882  0.31456890  0.20606323    -0.11600
C632        C  0.15540231  0.31430022  0.22883441    -0.10000
H633        H  0.18320198  0.40744229  0.24887408     0.07900
H634        H  0.15121039  0.40791186  0.20887917     0.11600
H635        H  0.12430509  0.28840823  0.19430258     0.11300
H636        H  0.15684583  0.28814641  0.23391617     0.07900
loop_ 
_geom_bond_atom_site_label_1 
_geom_bond_atom_site_label_2 
_geom_bond_distance 
_geom_bond_site_symmetry_2 
_ccdc_geom_bond_type 
In1           O3   2.238       .  S
In1           O4   2.259       .  S
In1          O12   2.250       .  S
In1           O6   2.238       .  S
In1           O8   2.246       .  S
In1           O9   2.253       .  S
In1          O10   2.239       .  S
In1          O13   2.233       .  S
C2            O8   1.262       .  A
C2           O10   1.261       .  A
C2          C630   1.475       .  S
O3           C11   1.259       .  A
O4           C11   1.260       .  A
C5           O12   1.262       .  A
C5            O6   1.261       .  A
C5          C581   1.477       .  S
C7            O9   1.262       .  A
C7           O13   1.260       .  A
C7          C570   1.476       .  S
C11         C601   1.477   1_455  S
In14         O16   2.243       .  S
In14         O17   2.266       .  S
In14         O25   2.257       .  S
In14         O19   2.238       .  S
In14         O21   2.242       .  S
In14         O22   2.264       .  S
In14         O23   2.242       .  S
In14         O26   2.231       .  S
C15          O21   1.261       .  A
C15          O23   1.260       .  A
C15         C621   1.474       .  S
O16          C24   1.258       .  A
O17          C24   1.261       .  A
C18          O25   1.264       .  A
C18          O19   1.261       .  A
C18         C550   1.480       .  S
C20          O22   1.264       .  A
C20          O26   1.259       .  A
C20         C510   1.479       .  S
C24         C521   1.479       .  S
In27         O29   2.229       .  S
In27         O30   2.270       .  S
In27         O38   2.253       .  S
In27         O32   2.231       .  S
In27         O34   2.268       .  S
In27         O35   2.262       .  S
In27         O36   2.234       .  S
In27         O39   2.233       .  S
C28          O34   1.262       .  A
C28          O36   1.258       .  A
C28         C490   1.479       .  S
O29          C37   1.258   1_565  A
O30          C37   1.262   1_565  A
C31          O38   1.264       .  A
C31          O32   1.263       .  A
C31         C441   1.478       .  S
C33          O35   1.264       .  A
C33          O39   1.261       .  A
C33         C421   1.481       .  S
C37         C470   1.476       .  S
In40         O42   2.248       .  S
In40         O43   2.267       .  S
In40         O51   2.256       .  S
In40         O45   2.247       .  S
In40         O47   2.246       .  S
In40         O48   2.269       .  S
In40         O49   2.250       .  S
In40         O52   2.236       .  S
C41          O47   1.261   1_556  A
C41          O49   1.260   1_556  A
C41         C481   1.478       .  S
O42          C50   1.259   1_455  A
O43          C50   1.260   1_455  A
C44          O51   1.264       .  A
C44          O45   1.262       .  A
C44         C590   1.482       .  S
C46          O48   1.263       .  A
C46          O52   1.259       .  A
C46         C390   1.480       .  S
C50         C401   1.481       .  S
In53         O55   2.243       .  S
In53         O56   2.260       .  S
In53         O64   2.245       .  S
In53         O58   2.229       .  S
In53         O60   2.254       .  S
In53         O61   2.257       .  S
In53         O62   2.234       .  S
In53         O65   2.236       .  S
C54          O60   1.260       .  A
C54          O62   1.259       .  A
C54         C350   1.473       .  S
O55          C63   1.260   1_565  A
O56          C63   1.261   1_565  A
C57          O64   1.264       .  A
C57          O58   1.261       .  A
C57         C450   1.475       .  S
C59          O61   1.262       .  A
C59          O65   1.259       .  A
C59         C321   1.476       .  S
C63         C361   1.478       .  S
In66         O68   2.233       .  S
In66         O69   2.264       .  S
In66         O77   2.263       .  S
In66         O71   2.234       .  S
In66         O73   2.235       .  S
In66         O74   2.256       .  S
In66         O75   2.241       .  S
In66         O78   2.231       .  S
C67          O73   1.261       .  A
C67          O75   1.261       .  A
C67         C341   1.472       .  S
O68          C76   1.259       .  A
O69          C76   1.262       .  A
C70          O77   1.263       .  A
C70          O71   1.259       .  A
C70         C541   1.479       .  S
C72          O74   1.263       .  A
C72          O78   1.259       .  A
C72         C290   1.476       .  S
C76         C310   1.479       .  S
In79         O81   2.241   1_655  S
In79         O82   2.258       .  S
In79         O90   2.248       .  S
In79         O84   2.250       .  S
In79         O86   2.258       .  S
In79         O87   2.274       .  S
In79         O88   2.243       .  S
In79         O91   2.241       .  S
C80          O86   1.262       .  A
C80          O88   1.260       .  A
C80         C261   1.479       .  S
O81          C89   1.260       .  A
O82          C89   1.262   1_655  A
C83          O90   1.262       .  A
C83          O84   1.261       .  A
C83         C241   1.480       .  S
C85          O87   1.260       .  A
C85          O91   1.257       .  A
C85         C370   1.480       .  S
C89         C501   1.477       .  S
In92         O94   2.243       .  S
In92         O95   2.270       .  S
In92        O103   2.267       .  S
In92         O97   2.234       .  S
In92         O99   2.258       .  S
In92        O100   2.259       .  S
In92        O101   2.243       .  S
In92        O104   2.225       .  S
C93          O99   1.260       .  A
C93         O101   1.257       .  A
C93         C270   1.476       .  S
O94         C102   1.257   1_545  A
O95         C102   1.260   1_545  A
C96         O103   1.265       .  A
C96          O97   1.262       .  A
C96         C230   1.484       .  S
C98         O100   1.264       .  A
C98         O104   1.261       .  A
C98         C610   1.477       .  S
C102        C281   1.477       .  S
In105       O107   2.241       .  S
In105       O108   2.266       .  S
In105       O116   2.259       .  S
In105       O110   2.238       .  S
In105       O112   2.250       .  S
In105       O113   2.257       .  S
In105       O114   2.232       .  S
In105       O117   2.223       .  S
C106        O112   1.262   1_554  A
C106        O114   1.260   1_554  A
C106        C201   1.473       .  S
O107        C115   1.257       .  A
O108        C115   1.259       .  A
C109        O116   1.263       .  A
C109        O110   1.261       .  A
C109        C181   1.481       .  S
C111        O113   1.264       .  A
C111        O117   1.260       .  A
C111        C461   1.474       .  S
C115        C561   1.477       .  S
In118       O120   2.243       .  S
In118       O121   2.263       .  S
In118       O129   2.261       .  S
In118       O123   2.242       .  S
In118       O125   2.252       .  S
In118       O126   2.283       .  S
In118       O127   2.235       .  S
In118       O130   2.226       .  S
C119        O125   1.261       .  A
C119        O127   1.260       .  A
C119        C210   1.474       .  S
O120        C128   1.260   1_545  A
O121        C128   1.263   1_545  A
C122        O129   1.264       .  A
C122        O123   1.261       .  A
C122        C221   1.483       .  S
C124        O126   1.263       .  A
C124        O130   1.257       .  A
C124        C530   1.482       .  S
C128        C381   1.479       .  S
In131       O133   2.241       .  S
In131       O134   2.272       .  S
In131       O142   2.264       .  S
In131       O136   2.237       .  S
In131       O138   2.244       .  S
In131       O139   2.274       .  S
In131       O140   2.259       .  S
In131       O143   2.241       .  S
C132        O138   1.261       .  A
C132        O140   1.263       .  A
C132        C161   1.482       .  S
O133        C141   1.258       .  A
O134        C141   1.263       .  A
C135        O142   1.262       .  A
C135        O136   1.259       .  A
C135        C190   1.480       .  S
C137        O139   1.263       .  A
C137        O143   1.260       .  A
C137        C410   1.484       .  S
C141        C330   1.481       .  S
In144       O146   2.235   1_655  S
In144       O147   2.285   1_655  S
In144       O155   2.266       .  S
In144       O149   2.239       .  S
In144       O151   2.259       .  S
In144       O152   2.267       .  S
In144       O153   2.257       .  S
In144       O156   2.241       .  S
C145        O151   1.260       .  A
C145        O153   1.260       .  A
C145        C170   1.483       .  S
O146        C154   1.258       .  A
O147        C154   1.263       .  A
C148        O155   1.264       .  A
C148        O149   1.261       .  A
C148        C250   1.482       .  S
C150        O152   1.264       .  A
C150        O156   1.260       .  A
C150        C301   1.482       .  S
C154        C430   1.485       .  S
C157        C158   1.407       .  A
C157        C162   1.400       .  A
C157        H167   1.082       .  S
C158        C163   1.493       .  S
C158        C159   1.408       .  A
C159        C160   1.401       .  A
C159        H164   1.083       .  S
C160        C161   1.404       .  A
C160        H165   1.083       .  S
C161        C162   1.405       .  A
C162        H166   1.083       .  S
C163        C168   1.408       .  A
C163        C172   1.407       .  A
C168        C169   1.401       .  A
C168        H173   1.083       .  S
C169        C170   1.405       .  A
C169        H174   1.083       .  S
C170        C171   1.404       .  A
C171        C172   1.400       .  A
C171        H175   1.083       .  S
C172        H176   1.083       .  S
C177        C178   1.405       .  A
C177        C182   1.398       .  A
C177        H187   1.083       .  S
C178        C183   1.488       .  S
C178        C179   1.408       .  A
C179        C180   1.401       .  A
C179        H184   1.083       .  S
C180        C181   1.405       .  A
C180        H185   1.083       .  S
C181        C182   1.405       .  A
C182        H186   1.083       .  S
C183        C188   1.408       .  A
C183        C192   1.405       .  A
C188        C189   1.401       .  A
C188        H193   1.083       .  S
C189        C190   1.404       .  A
C189        H194   1.083       .  S
C190        C191   1.405       .  A
C191        C192   1.397       .  A
C191        H195   1.083       .  S
C192        H196   1.083       .  S
C197        C198   1.405       .  A
C197        C202   1.399       .  A
C197        H207   1.083       .  S
C198        C203   1.481       .  S
C198        C199   1.405       .  A
C199        C200   1.394       .  A
C199        H204   1.084       .  S
C200        C201   1.403       .  A
C200        H205   1.083       .  S
C201        C202   1.404       .  A
C202        H206   1.083       .  S
C203        C208   1.406       .  A
C203        C212   1.404       .  A
C208        C209   1.400       .  A
C208        H213   1.083       .  S
C209        C210   1.405       .  A
C209        H214   1.083       .  S
C210        C211   1.403       .  A
C211        C212   1.393       .  A
C211        H215   1.083       .  S
C212        H216   1.083       .  S
C217        C218   1.407       .  A
C217        C222   1.402       .  A
C217        H227   1.083       .  S
C218        C223   1.488       .  S
C218        C219   1.405       .  A
C219        C220   1.400       .  A
C219        H224   1.083       .  S
C220        C221   1.407       .  A
C220        H225   1.083       .  S
C221        C222   1.405       .  A
C222        H226   1.083       .  S
C223        C228   1.404       .  A
C223        C232   1.407       .  A
C228        C229   1.398       .  A
C228        H233   1.083       .  S
C229        C230   1.406       .  A
C229        H234   1.083       .  S
C230        C231   1.406       .  A
C231        C232   1.404       .  A
C231        H235   1.083       .  S
C232        H236   1.083       .  S
C237        C238   1.407       .  A
C237        C242   1.399       .  A
C237        H247   1.083       .  S
C238        C243   1.491       .  S
C238        C239   1.407       .  A
C239        C240   1.400       .  A
C239        H244   1.083       .  S
C240        C241   1.405       .  A
C240        H245   1.083       .  S
C241        C242   1.404       .  A
C242        H246   1.083       .  S
C243        C248   1.406       .  A
C243        C252   1.408       .  A
C248        C249   1.399       .  A
C248        H253   1.083       .  S
C249        C250   1.405       .  A
C249        H254   1.083       .  S
C250        C251   1.404       .  A
C251        C252   1.402       .  A
C251        H255   1.083       .  S
C252        H256   1.082       .  S
C257        C258   1.406       .  A
C257        C262   1.401       .  A
C257        H267   1.083       .  S
C258        C263   1.485       .  S
C258        C259   1.405       .  A
C259        C260   1.395       .  A
C259        H264   1.083       .  S
C260        C261   1.404       .  A
C260        H265   1.083       .  S
C261        C262   1.406       .  A
C262        H266   1.083       .  S
C263        C268   1.406       .  A
C263        C272   1.405       .  A
C268        C269   1.400       .  A
C268        H273   1.083       .  S
C269        C270   1.404       .  A
C269        H274   1.083       .  S
C270        C271   1.404       .  A
C271        C272   1.396       .  A
C271        H275   1.083       .  S
C272        H276   1.083       .  S
C277        C278   1.408       .  A
C277        C282   1.396       .  A
C277        H287   1.083       .  S
C278        C283   1.492       .  S
C278        C279   1.409       .  A
C279        C280   1.401       .  A
C279        H284   1.082       .  S
C280        C281   1.403       .  A
C280        H285   1.083       .  S
C281        C282   1.403       .  A
C282        H286   1.083       .  S
C283        C288   1.408       .  A
C283        C292   1.409       .  A
C288        C289   1.395       .  A
C288        H293   1.082       .  S
C289        C290   1.403       .  A
C289        H294   1.084       .  S
C290        C291   1.403       .  A
C291        C292   1.400       .  A
C291        H295   1.083       .  S
C292        H296   1.082       .  S
C297        C298   1.406       .  A
C297        C302   1.397       .  A
C297        H307   1.083       .  S
C298        C303   1.490       .  S
C298        C299   1.408       .  A
C299        C300   1.402       .  A
C299        H304   1.083       .  S
C300        C301   1.405       .  A
C300        H305   1.082       .  S
C301        C302   1.405       .  A
C302        H306   1.083       .  S
C303        C308   1.408       .  A
C303        C312   1.406       .  A
C308        C309   1.403       .  A
C308        H313   1.083       .  S
C309        C310   1.405       .  A
C309        H314   1.083       .  S
C310        C311   1.403       .  A
C311        C312   1.395       .  A
C311        H315   1.083       .  S
C312        H316   1.083       .  S
C317        C318   1.408       .  A
C317        C322   1.400       .  A
C317        H327   1.082       .  S
C318        C323   1.491       .  S
C318        C319   1.407       .  A
C319        C320   1.397       .  A
C319        H324   1.082       .  S
C320        C321   1.404       .  A
C320        H325   1.084       .  S
C321        C322   1.403       .  A
C322        H326   1.082       .  S
C323        C328   1.407       .  A
C323        C332   1.408       .  A
C328        C329   1.397       .  A
C328        H333   1.083       .  S
C329        C330   1.405       .  A
C329        H334   1.084       .  S
C330        C331   1.404       .  A
C331        C332   1.402       .  A
C331        H335   1.082       .  S
C332        H336   1.083       .  S
C337        C338   1.405       .  A
C337        C342   1.396       .  A
C337        H347   1.083       .  S
C338        C343   1.482       .  S
C338        C339   1.406       .  A
C339        C340   1.396       .  A
C339        H344   1.083       .  S
C340        C341   1.403       .  A
C340        H345   1.083       .  S
C341        C342   1.404       .  A
C342        H346   1.083       .  S
C343        C348   1.407       .  A
C343        C352   1.404       .  A
C348        C349   1.399       .  A
C348        H353   1.083       .  S
C349        C350   1.404       .  A
C349        H354   1.083       .  S
C350        C351   1.403       .  A
C351        C352   1.394       .  A
C351        H355   1.083       .  S
C352        H356   1.083       .  S
C357        C358   1.406       .  A
C357        C362   1.402       .  A
C357        H367   1.082       .  S
C358        C363   1.485       .  S
C358        C359   1.405       .  A
C359        C360   1.396       .  A
C359        H364   1.084       .  S
C360        C361   1.403       .  A
C360        H365   1.082       .  S
C361        C362   1.406       .  A
C362        H366   1.084       .  S
C363        C368   1.406       .  A
C363        C372   1.405       .  A
C368        C369   1.404       .  A
C368        H373   1.085       .  S
C369        C370   1.407       .  A
C369        H374   1.082       .  S
C370        C371   1.403       .  A
C371        C372   1.394       .  A
C371        H375   1.085       .  S
C372        H376   1.082       .  S
C377        C378   1.406       .  A
C377        C382   1.397       .  A
C377        H387   1.084       .  S
C378        C383   1.489       .  S
C378        C379   1.407       .  A
C379        C380   1.402       .  A
C379        H384   1.082       .  S
C380        C381   1.405       .  A
C380        H385   1.084       .  S
C381        C382   1.404       .  A
C382        H386   1.082       .  S
C383        C388   1.406       .  A
C383        C392   1.407       .  A
C388        C389   1.395       .  A
C388        H393   1.082       .  S
C389        C390   1.404       .  A
C389        H394   1.085       .  S
C390        C391   1.405       .  A
C391        C392   1.403       .  A
C391        H395   1.082       .  S
C392        H396   1.084       .  S
C397        C398   1.408       .  A
C397        C402   1.403   1_556  A
C397        H407   1.082       .  S
C398        C403   1.493       .  S
C398        C399   1.407       .  A
C399        C400   1.398   1_556  A
C399        H404   1.083       .  S
C400        C401   1.403       .  A
C400        H405   1.083       .  S
C401        C402   1.406       .  A
C402        H406   1.083       .  S
C403        C408   1.408       .  A
C403        C412   1.407       .  A
C408        C409   1.405       .  A
C408        H413   1.083       .  S
C409        C410   1.406       .  A
C409        H414   1.082       .  S
C410        C411   1.404       .  A
C411        C412   1.397       .  A
C411        H415   1.083       .  S
C412        H416   1.082       .  S
C417        C418   1.408       .  A
C417        C422   1.397       .  A
C417        H427   1.083       .  S
C418        C423   1.496       .  S
C418        C419   1.409       .  A
C419        C420   1.403       .  A
C419        H424   1.081       .  S
C420        C421   1.404       .  A
C420        H425   1.083       .  S
C421        C422   1.404       .  A
C422        H426   1.083       .  S
C423        C428   1.410       .  A
C423        C432   1.407       .  A
C428        C429   1.406       .  A
C428        H433   1.082       .  S
C429        C430   1.406       .  A
C429        H434   1.084       .  S
C430        C431   1.404       .  A
C431        C432   1.395       .  A
C431        H435   1.083       .  S
C432        H436   1.083       .  S
C437        C438   1.405       .  A
C437        C442   1.400       .  A
C437        H447   1.083       .  S
C438        C443   1.480       .  S
C438        C439   1.403       .  A
C439        C440   1.396       .  A
C439        H444   1.083       .  S
C440        C441   1.405       .  A
C440        H445   1.082       .  S
C441        C442   1.405       .  A
C442        H446   1.083       .  S
C443        C448   1.404       .  A
C443        C452   1.405       .  A
C448        C449   1.397       .  A
C448        H453   1.083       .  S
C449        C450   1.405       .  A
C449        H454   1.083       .  S
C450        C451   1.404       .  A
C451        C452   1.398       .  A
C451        H455   1.083       .  S
C452        H456   1.083       .  S
C457        C458   1.406       .  A
C457        C462   1.402       .  A
C457        H467   1.083       .  S
C458        C463   1.482       .  S
C458        C459   1.405       .  A
C459        C460   1.393       .  A
C459        H464   1.083       .  S
C460        C461   1.403       .  A
C460        H465   1.084       .  S
C461        C462   1.405       .  A
C462        H466   1.082       .  S
C463        C468   1.407       .  A
C463        C472   1.404       .  A
C468        C469   1.403       .  A
C468        H473   1.082       .  S
C469        C470   1.406       .  A
C469        H474   1.083       .  S
C470        C471   1.403       .  A
C471        C472   1.393       .  A
C471        H475   1.082       .  S
C472        H476   1.084       .  S
C477        C478   1.408       .  A
C477        C482   1.399       .  A
C477        H487   1.083       .  S
C478        C483   1.489       .  S
C478        C479   1.406       .  A
C479        C480   1.398       .  A
C479        H484   1.083       .  S
C480        C481   1.404       .  A
C480        H485   1.083       .  S
C481        C482   1.404       .  A
C482        H486   1.084       .  S
C483        C488   1.405       .  A
C483        C492   1.409       .  A
C488        C489   1.396       .  A
C488        H493   1.083       .  S
C489        C490   1.404       .  A
C489        H494   1.083       .  S
C490        C491   1.404       .  A
C491        C492   1.402       .  A
C491        H495   1.083       .  S
C492        H496   1.083       .  S
C497        C498   1.407       .  A
C497        C502   1.397       .  A
C497        H507   1.083       .  S
C498        C503   1.489       .  S
C498        C499   1.407       .  A
C499        C500   1.400       .  A
C499        H504   1.082       .  S
C500        C501   1.404       .  A
C500        H505   1.083       .  S
C501        C502   1.404       .  A
C502        H506   1.083       .  S
C503        C508   1.406       .  A
C503        C512   1.407       .  A
C508        C509   1.396       .  A
C508        H513   1.082       .  S
C509        C510   1.404       .  A
C509        H514   1.084       .  S
C510        C511   1.404       .  A
C511        C512   1.402       .  A
C511        H515   1.082       .  S
C512        H516   1.083       .  S
C517        C518   1.408       .  A
C517        C522   1.397       .  A
C517        H527   1.083       .  S
C518        C523   1.494       .  S
C518        C519   1.408       .  A
C519        C520   1.403       .  A
C519        H524   1.082       .  S
C520        C521   1.405       .  A
C520        H525   1.084       .  S
C521        C522   1.403       .  A
C522        H526   1.083       .  S
C523        C528   1.406       .  A
C523        C532   1.410       .  A
C528        C529   1.393       .  A
C528        H533   1.082       .  S
C529        C530   1.403       .  A
C529        H534   1.084       .  S
C530        C531   1.406       .  A
C531        C532   1.406       .  A
C531        H535   1.082       .  S
C532        H536   1.084       .  S
C537        C538   1.407       .  A
C537        C542   1.401       .  A
C537        H547   1.083       .  S
C538        C543   1.485       .  S
C538        C539   1.404       .  A
C539        C540   1.398       .  A
C539        H544   1.083       .  S
C540        C541   1.406       .  A
C540        H545   1.083       .  S
C541        C542   1.404       .  A
C542        H546   1.083       .  S
C543        C548   1.404       .  A
C543        C552   1.407       .  A
C548        C549   1.398       .  A
C548        H553   1.083       .  S
C549        C550   1.405       .  A
C549        H554   1.083       .  S
C550        C551   1.405       .  A
C551        C552   1.401       .  A
C551        H555   1.083       .  S
C552        H556   1.083       .  S
C557        C558   1.405       .  A
C557        C562   1.395   1_554  A
C557        H567   1.084       .  S
C558        C563   1.487       .  S
C558        C559   1.408       .  A
C559        C560   1.401   1_554  A
C559        H564   1.082       .  S
C560        C561   1.405       .  A
C560        H565   1.084       .  S
C561        C562   1.403       .  A
C562        H566   1.082       .  S
C563        C568   1.407       .  A
C563        C572   1.406       .  A
C568        C569   1.395       .  A
C568        H573   1.082       .  S
C569        C570   1.403       .  A
C569        H574   1.085       .  S
C570        C571   1.405       .  A
C571        C572   1.401       .  A
C571        H575   1.082       .  S
C572        H576   1.084       .  S
C577        C578   1.407       .  A
C577        C582   1.400       .  A
C577        H587   1.082       .  S
C578        C583   1.487       .  S
C578        C579   1.406       .  A
C579        C580   1.397       .  A
C579        H584   1.083       .  S
C580        C581   1.404       .  A
C580        H585   1.083       .  S
C581        C582   1.405       .  A
C582        H586   1.083       .  S
C583        C588   1.405       .  A
C583        C592   1.407       .  A
C588        C589   1.400       .  A
C588        H593   1.083       .  S
C589        C590   1.406       .  A
C589        H594   1.083       .  S
C590        C591   1.404       .  A
C591        C592   1.399       .  A
C591        H595   1.083       .  S
C592        H596   1.083       .  S
C597        C598   1.409       .  A
C597        C602   1.394       .  A
C597        H607   1.081       .  S
C598        C603   1.496       .  S
C598        C599   1.410       .  A
C599        C600   1.402       .  A
C599        H604   1.082       .  S
C600        C601   1.404       .  A
C600        H605   1.083       .  S
C601        C602   1.402       .  A
C602        H606   1.084       .  S
C603        C608   1.411       .  A
C603        C612   1.408       .  A
C608        C609   1.402       .  A
C608        H613   1.082       .  S
C609        C610   1.403       .  A
C609        H614   1.082       .  S
C610        C611   1.402       .  A
C611        C612   1.394       .  A
C611        H615   1.084       .  S
C612        H616   1.081       .  S
C617        C618   1.405       .  A
C617        C622   1.397       .  A
C617        H627   1.082       .  S
C618        C623   1.484       .  S
C618        C619   1.406       .  A
C619        C620   1.397       .  A
C619        H624   1.084       .  S
C620        C621   1.404       .  A
C620        H625   1.083       .  S
C621        C622   1.403       .  A
C622        H626   1.084       .  S
C623        C628   1.406       .  A
C623        C632   1.405       .  A
C628        C629   1.398       .  A
C628        H633   1.084       .  S
C629        C630   1.404       .  A
C629        H634   1.083       .  S
C630        C631   1.403       .  A
C631        C632   1.396       .  A
C631        H635   1.084       .  S
C632        H636   1.082       .  S
