geometry optimzed in LAMMPS
_audit_creation_date              2020-12-01 
_audit_creation_method            'lammps2cif' 
_symmetry_space_group_name_H-M    'P1' 
_symmetry_Int_Tables_number       1 
_symmetry_cell_setting            triclinic 
loop_ 
_symmetry_equiv_pos_as_xyz 
  x,y,z 
_cell_length_a                    42.89027562 
_cell_length_b                    42.89358318438064 
_cell_length_c                    28.494024656365458 
_cell_angle_alpha                 90.0050469565447 
_cell_angle_beta                  89.99228343503789 
_cell_angle_gamma                 120.16141543877177 
loop_ 
_atom_site_label 
_atom_site_type_symbol 
_atom_site_fract_x 
_atom_site_fract_y 
_atom_site_fract_z 
_atom_site_charge 
O1          O  0.37928024  0.84994139  0.57486971    -0.53000
C2          C  0.32184960  0.85816284  0.67961734     0.79600
O3          O  0.33013328  0.92332793  0.55944346    -0.54200
C4          C  0.38829659  0.86026793  0.53299809     0.79600
C5          C  0.26895554  0.81466956  0.53429725     0.82000
Cd6        Cd  0.33358061  0.86877435  0.57999195     1.37500
O7          O  0.34567387  0.85417915  0.65895782    -0.53000
O8          O  0.28627899  0.80656930  0.56284828    -0.51800
C9          C  0.36149102  0.94529151  0.57421096     0.81900
O10         O  0.28078678  0.84784288  0.52714316    -0.54200
O11         O  0.30252256  0.86602965  0.65442876    -0.52700
O12         O  0.37183791  0.87389822  0.51248911    -0.52700
O13         O  0.37952634  0.93210413  0.59121618    -0.51800
O14         O  0.15069326  0.62105894  0.42564530    -0.53000
C15         C  0.14208445  0.67824016  0.32088116     0.79600
O16         O  0.07696214  0.66999171  0.44086146    -0.54200
C17         C  0.14018348  0.61188365  0.46742710     0.79600
C18         C  0.18550589  0.73110731  0.46634209     0.82000
Cd19       Cd  0.13152121  0.66649929  0.42050364     1.37500
O20         O  0.14576628  0.65419747  0.34143494    -0.53000
O21         O  0.19367786  0.71398080  0.43754408    -0.51800
C22         C  0.05500055  0.63858357  0.42625654     0.81900
O23         O  0.15231719  0.71907436  0.47369199    -0.54200
O24         O  0.13453842  0.69776124  0.34617319    -0.52700
O25         O  0.12631984  0.62814952  0.48786938    -0.52700
O26         O  0.06819164  0.62049969  0.40941550    -0.51800
O27         O  0.34105928  0.84838907  0.84371525    -0.53000
C28         C  0.39032330  0.86247369  0.96766759     0.79600
O29         O  0.33174755  0.92352100  0.94553496    -0.54200
C30         C  0.32164847  0.85812527  0.82212103     0.79600
C31         C  0.26889742  0.81497386  0.96657263     0.82000
Cd32       Cd  0.33403545  0.86897447  0.92162171     1.37500
O33         O  0.38269137  0.85409306  0.92500210    -0.53000
O34         O  0.28669634  0.80677863  0.93899263    -0.51800
C35         C  0.36231651  0.94542283  0.92843236     0.81900
O36         O  0.28047915  0.84816155  0.97306997    -0.54200
O37         O  0.37175261  0.87317125  0.98940495    -0.52700
O38         O  0.30684310  0.87178853  0.84635646    -0.52700
O39         O  0.37932124  0.93217106  0.90850011    -0.51800
O40         O  0.15139539  0.65883831  0.15679543    -0.53000
C41         C  0.13763167  0.60991181  0.03293293     0.79600
O42         O  0.07667179  0.66856759  0.05466690    -0.54200
C43         C  0.14208934  0.67859521  0.17837873     0.79600
C44         C  0.18520023  0.73131529  0.03381777     0.82000
Cd45       Cd  0.13116036  0.66625213  0.07887442     1.37500
O46         O  0.14614562  0.61767688  0.07553755    -0.53000
O47         O  0.19338470  0.71343913  0.06126427    -0.51800
C48         C  0.05472028  0.63813164  0.07205152     0.81900
O49         O  0.15201368  0.71984410  0.02750270    -0.54200
O50         O  0.12679632  0.62836425  0.01120176    -0.52700
O51         O  0.12883630  0.69378609  0.15412733    -0.52700
O52         O  0.06791719  0.62119630  0.09228752    -0.51800
O53         O  0.14928118  0.52887968  0.57557986    -0.53000
C54         C  0.14356793  0.46329033  0.67963507     0.79600
O55         O  0.07790750  0.40806034  0.55474073    -0.54200
C56         C  0.14055632  0.52779233  0.53300604     0.79600
C57         C  0.18654911  0.45423123  0.53559719     0.82000
Cd58       Cd  0.13235623  0.46471443  0.58023167     1.37500
O59         O  0.14874678  0.49158647  0.65905476    -0.53000
O60         O  0.19465940  0.48071253  0.56233333    -0.51800
C61         C  0.05585775  0.41595991  0.57292877     0.81900
O62         O  0.15339681  0.43183134  0.53002798    -0.54200
O63         O  0.13406958  0.43567472  0.65448039    -0.52700
O64         O  0.12866860  0.49802922  0.51195815    -0.52700
O65         O  0.06894833  0.44571799  0.59425576    -0.51800
O66         O  0.37964191  0.52822865  0.42622227    -0.53000
C67         C  0.32290429  0.46271981  0.32157098     0.79600
O68         O  0.32883150  0.40474807  0.44003261    -0.54200
C69         C  0.38870484  0.52695374  0.46806431     0.79600
C70         C  0.26938582  0.45366149  0.46724619     0.82000
Cd71       Cd  0.33362177  0.46368048  0.42141967     1.37500
O72         O  0.34601325  0.49083594  0.34261882    -0.53000
O73         O  0.28584525  0.47802492  0.43695687    -0.51800
C74         C  0.36091979  0.41478705  0.42802586     0.81900
O75         O  0.28181254  0.43308376  0.47592363    -0.54200
O76         O  0.30387862  0.43514437  0.34644776    -0.52700
O77         O  0.37203506  0.49687961  0.48876937    -0.52700
O78         O  0.37987269  0.44672459  0.41336770    -0.51800
O79         O  0.15399026  0.49166178  0.84404278    -0.53000
C80         C  0.13800763  0.52538044  0.96828631     0.79600
O81         O  0.07722616  0.40627709  0.94447119    -0.54200
C82         C  0.14420344  0.46261394  0.82204135     0.79600
C83         C  0.18533110  0.45149473  0.96695248     0.82000
Cd84       Cd  0.13213926  0.46316362  0.92129464     1.37500
O85         O  0.14658273  0.52656597  0.92563344    -0.53000
O86         O  0.19399384  0.47833965  0.94069849    -0.51800
C87         C  0.05561974  0.41477141  0.92624240     0.81900
O88         O  0.15205381  0.42929356  0.97176301    -0.54200
O89         O  0.12735306  0.49590782  0.98961294    -0.52700
O90         O  0.13016626  0.43386068  0.84583211    -0.52700
O91         O  0.06919430  0.44497182  0.90593109    -0.51800
O92         O  0.34094913  0.49120389  0.15668315    -0.53000
C93         C  0.38938530  0.52605711  0.03261143     0.79600
O94         O  0.32965260  0.40453105  0.05898561    -0.54200
C95         C  0.32248805  0.46208030  0.17894570     0.79600
C96         C  0.26830115  0.45101975  0.03474118     0.82000
Cd97       Cd  0.33367444  0.46279804  0.07921789     1.37500
O98         O  0.38288359  0.52632824  0.07580800    -0.53000
O99         O  0.28468399  0.47556416  0.06482263    -0.51800
C100        C  0.36134024  0.41422926  0.07250436     0.81900
O101        O  0.28133003  0.43102563  0.02563467    -0.54200
O102        O  0.36992278  0.49704544  0.01056242    -0.52700
O103        O  0.30809712  0.43325060  0.15529820    -0.52700
O104        O  0.37982919  0.44577051  0.08870305    -0.51800
O105        O  0.47130095  0.85082192  0.42505918    -0.53000
C106        C  0.53705315  0.85684730  0.32092987     0.79600
O107        O  0.59216975  0.92245844  0.44597151    -0.54200
C108        C  0.47243665  0.85985081  0.46751037     0.79600
C109        C  0.54606767  0.81382016  0.46498491     0.82000
Cd110      Cd  0.53555042  0.86799400  0.42036448     1.37500
O111        O  0.50875183  0.85169765  0.34147903    -0.53000
O112        O  0.51947194  0.80569865  0.43846607    -0.51800
C113        C  0.58426820  0.94449735  0.42776238     0.81900
O114        O  0.56854362  0.84696957  0.47037586    -0.54200
O115        O  0.56463953  0.86629910  0.34612208    -0.52700
O116        O  0.50225760  0.87198726  0.48849356    -0.52700
O117        O  0.55453731  0.93139254  0.40636454    -0.51800
O118        O  0.47237987  0.62072939  0.57440817    -0.53000
C119        C  0.53772205  0.67736347  0.67894819     0.79600
O120        O  0.59609869  0.67204512  0.56110905    -0.54200
C121        C  0.47358313  0.61179466  0.53247418     0.79600
C122        C  0.54684511  0.73107437  0.53324719     0.82000
Cd123      Cd  0.53689790  0.66687694  0.57905563     1.37500
O124        O  0.50959565  0.65438354  0.65778952    -0.53000
O125        O  0.52296085  0.71501602  0.56422892    -0.51800
C126        C  0.58597393  0.63981223  0.57243126     0.81900
O127        O  0.56700195  0.71827553  0.52387419    -0.54200
O128        O  0.56536648  0.69636261  0.65416414    -0.52700
O129        O  0.50360360  0.62858642  0.51165614    -0.52700
O130        O  0.55387447  0.62062037  0.58640972    -0.51800
O131        O  0.50873420  0.84615146  0.15645055    -0.53000
C132        C  0.47491044  0.86224919  0.03238325     0.79600
O133        O  0.59453192  0.92318169  0.05704531    -0.54200
C134        C  0.53781448  0.85622869  0.17851363     0.79600
C135        C  0.54890056  0.81511613  0.03348686     0.82000
Cd136      Cd  0.53724955  0.86828667  0.07925662     1.37500
O137        O  0.47395806  0.85427495  0.07524271    -0.53000
O138        O  0.52254003  0.80643365  0.06067601    -0.51800
C139        C  0.58569437  0.94481581  0.07433651     0.81900
O140        O  0.57062626  0.84840911  0.02777594    -0.54200
O141        O  0.50419847  0.87237813  0.01081502    -0.52700
O142        O  0.56660542  0.87055704  0.15478266    -0.52700
O143        O  0.55513353  0.93126595  0.09368005    -0.51800
O144        O  0.47408580  0.61753323  0.92479479    -0.53000
C145        C  0.53833293  0.67772922  0.82160301     0.79600
O146        O  0.56933679  0.71906029  0.97501043    -0.54200
C147        C  0.47436772  0.61097484  0.96796545     0.79600
C148        C  0.58623387  0.63911462  0.92818870     0.82000
Cd149      Cd  0.53763441  0.66671659  0.92137936     1.37500
O150        O  0.50918648  0.65969533  0.84398476    -0.53000
O151        O  0.55470033  0.62060933  0.91196403    -0.51800
C152        C  0.54942231  0.73214718  0.96572485     0.81900
O153        O  0.59591846  0.67080419  0.94169123    -0.54200
O154        O  0.56720816  0.69176765  0.84514665    -0.52700
O155        O  0.50340306  0.63037486  0.98999653    -0.52700
O156        O  0.52497970  0.71581248  0.93551000    -0.51800
O157        O  0.85097730  0.37824961  0.92577541    -0.53000
C158        C  0.85933555  0.32097601  0.82099477     0.79600
O159        O  0.92442693  0.32887552  0.94027336    -0.54200
C160        C  0.86136706  0.38731489  0.96761879     0.79600
C161        C  0.81591534  0.26810709  0.96660496     0.82000
Cd162      Cd  0.86991582  0.33264097  0.92065054     1.37500
O163        O  0.85535638  0.34480077  0.84165824    -0.53000
O164        O  0.80776260  0.28517689  0.93769862    -0.51800
C165        C  0.94640893  0.36050537  0.92641039     0.81900
O166        O  0.84909814  0.28015568  0.97400956    -0.54200
O167        O  0.86720860  0.30165661  0.84618261    -0.52700
O168        O  0.87506610  0.37091314  0.98810900    -0.52700
O169        O  0.93324748  0.37883464  0.91032572    -0.51800
O170        O  0.62207775  0.14942294  0.07494597    -0.53000
C171        C  0.67942791  0.14114090  0.17974766     0.79600
O172        O  0.67121918  0.07603252  0.05940622    -0.54200
C173        C  0.61304875  0.13903747  0.03309727     0.79600
C174        C  0.73237814  0.18463614  0.03456029     0.82000
Cd175      Cd  0.66771667  0.13052096  0.08015068     1.37500
O176        O  0.65546671  0.14492627  0.15914098    -0.53000
O177        O  0.71496630  0.19274082  0.06296561    -0.51800
C178        C  0.63993226  0.05402586  0.07435333     0.81900
O179        O  0.72060441  0.15146280  0.02749792    -0.54200
O180        O  0.69888193  0.13346492  0.15451764    -0.52700
O181        O  0.62946297  0.12533171  0.01264857    -0.52700
O182        O  0.62190334  0.06715971  0.09154966    -0.51800
O183        O  0.85516209  0.38130542  0.57534707    -0.53000
C184        C  0.85922330  0.32051389  0.67847633     0.79600
O185        O  0.84936986  0.27883730  0.52827428    -0.54200
C186        C  0.86389668  0.38915681  0.53281223     0.79600
C187        C  0.94667584  0.36094775  0.57228266     0.82000
Cd188      Cd  0.87023667  0.33280331  0.57896406     1.37500
O189        O  0.85003980  0.34034922  0.65685726    -0.53000
O190        O  0.93343459  0.37764762  0.59303245    -0.51800
C191        C  0.81619050  0.26772298  0.53396127     0.81900
O192        O  0.92476745  0.33073167  0.55431617    -0.54200
O193        O  0.87235472  0.30518994  0.65425055    -0.52700
O194        O  0.87492556  0.37080108  0.51123523    -0.52700
O195        O  0.80801702  0.28594849  0.56078342    -0.51800
O196        O  0.66002660  0.15049467  0.34384225    -0.53000
C197        C  0.61115570  0.13675154  0.46775519     0.79600
O198        O  0.66976613  0.07561419  0.44550311    -0.54200
C199        C  0.67970868  0.14110807  0.32222639     0.79600
C200        C  0.73248690  0.18411913  0.46666659     0.82000
Cd201      Cd  0.66736661  0.13012897  0.42170213     1.37500
O202        O  0.61866532  0.14492486  0.42502017    -0.53000
O203        O  0.71469866  0.19233006  0.43909518    -0.51800
C204        C  0.63917892  0.05367996  0.42849360     0.81900
O205        O  0.72089742  0.15092917  0.47314436    -0.54200
O206        O  0.62980514  0.12618486  0.48956089    -0.52700
O207        O  0.69480842  0.12773814  0.34643182    -0.52700
O208        O  0.62210714  0.06689507  0.40866766    -0.51800
O209        O  0.52998480  0.14795283  0.92482124    -0.53000
C210        C  0.46435291  0.14238315  0.82087996     0.79600
O211        O  0.40914662  0.07662853  0.94556138    -0.54200
C212        C  0.52897006  0.13942089  0.96746849     0.79600
C213        C  0.45532692  0.18530051  0.96506510     0.82000
Cd214      Cd  0.46584651  0.13116004  0.92030618     1.37500
O215        O  0.49271880  0.14776459  0.84146553    -0.53000
O216        O  0.48185654  0.19344438  0.93839805    -0.51800
C217        C  0.41726008  0.05462091  0.92775158     0.81900
O218        O  0.43290446  0.15214244  0.97052079    -0.54200
O219        O  0.43669534  0.13267550  0.84603404    -0.52700
O220        O  0.49926710  0.12772424  0.98861868    -0.52700
O221        O  0.44715514  0.06776745  0.90674604    -0.51800
O222        O  0.52914463  0.37819348  0.07405414    -0.53000
C223        C  0.46360959  0.32184834  0.17888998     0.79600
O224        O  0.40564939  0.32762769  0.06028875    -0.54200
C225        C  0.52783480  0.38733746  0.03226750     0.79600
C226        C  0.45456818  0.26806554  0.03337016     0.82000
Cd227      Cd  0.46455196  0.33236235  0.07899513     1.37500
O228        O  0.49174330  0.34486493  0.15777470    -0.53000
O229        O  0.47874100  0.28442010  0.06391699    -0.51800
C230        C  0.41569544  0.35970310  0.07236418     0.81900
O231        O  0.43412905  0.28060158  0.02436821    -0.54200
O232        O  0.43599910  0.30282931  0.15406258    -0.52700
O233        O  0.49771576  0.37079786  0.01165023    -0.52700
O234        O  0.44762063  0.37861946  0.08708747    -0.51800
O235        O  0.49272692  0.15315811  0.65639103    -0.53000
C236        C  0.52662753  0.13715544  0.53237598     0.79600
O237        O  0.40678768  0.07615215  0.55752613    -0.54200
C238        C  0.46363717  0.14304442  0.67845670     0.79600
C239        C  0.45256863  0.18414854  0.53324417     0.82000
Cd240      Cd  0.46423694  0.13104787  0.57916989     1.37500
O241        O  0.52759307  0.14527762  0.57518115    -0.53000
O242        O  0.47873303  0.19285860  0.56078829    -0.51800
C243        C  0.41583358  0.05451317  0.57424161     0.81900
O244        O  0.43104097  0.15084830  0.52722427    -0.54200
O245        O  0.49731197  0.12688022  0.51081681    -0.57500
O246        O  0.43485254  0.12869515  0.65472108    -0.52700
O247        O  0.44659017  0.06806007  0.59302381    -0.51800
O248        O  0.49220899  0.34028481  0.34370852    -0.53000
C249        C  0.52709705  0.38829052  0.46809318     0.79600
O250        O  0.40577270  0.32880161  0.44201754    -0.54200
C251        C  0.46309812  0.32151767  0.32154440     0.79600
C252        C  0.45213388  0.26718179  0.46557740     0.82000
Cd253      Cd  0.46388278  0.33261918  0.42131609     1.37500
O254        O  0.52757853  0.38144087  0.42506431    -0.53000
O255        O  0.47691987  0.28383856  0.43587918    -0.51800
C256        C  0.41535336  0.36033743  0.42795507     0.81900
O257        O  0.43189573  0.27997606  0.47441957    -0.54200
O258        O  0.49788703  0.36918643  0.48992695    -0.52700
O259        O  0.43432097  0.30678805  0.34530552    -0.52700
O260        O  0.44675496  0.37864597  0.41125343    -0.51800
O261        O  0.65527245  0.50844407  0.84277131    -0.53000
C262        C  0.61269086  0.47222955  0.96795302     0.79600
O263        O  0.71924992  0.56581962  0.97660792    -0.54200
C264        C  0.67830380  0.53657274  0.82166991     0.79600
C265        C  0.64059528  0.58462228  0.92834693     0.82000
Cd266      Cd  0.66775796  0.53562725  0.92155929     1.37500
O267        O  0.62170941  0.47108809  0.92604292    -0.53000
O268        O  0.62142400  0.55253387  0.91432716    -0.51800
C269        C  0.73193333  0.54553364  0.96743199     0.81900
O270        O  0.67283340  0.59475775  0.93966368    -0.54200
O271        O  0.62939178  0.50222982  0.98882839    -0.52700
O272        O  0.69732643  0.56417345  0.84650794    -0.52700
O273        O  0.71576716  0.52153206  0.93662440    -0.51800
O274        O  0.85293130  0.50769394  0.15920767    -0.53000
C275        C  0.86095620  0.47143063  0.03313445     0.79600
O276        O  0.84783789  0.56774991  0.03111025    -0.54200
C277        C  0.85767458  0.53586060  0.17971119     0.79600
C278        C  0.94553238  0.58321708  0.07277482     0.82000
Cd279      Cd  0.86901631  0.53447469  0.08030516     1.37500
O280        O  0.85211401  0.47032218  0.07566506    -0.53000
O281        O  0.93244380  0.55369775  0.09467142    -0.51800
C282        C  0.81472780  0.54482259  0.03570142     0.81900
O283        O  0.92347484  0.59089878  0.05411660    -0.54200
O284        O  0.87289227  0.50120334  0.01209058    -0.52700
O285        O  0.86679168  0.56336119  0.15448152    -0.52700
O286        O  0.80668779  0.51784165  0.06142340    -0.51800
O287        O  0.61855129  0.47306245  0.57590292    -0.53000
C288        C  0.67871117  0.53722117  0.67902610     0.79600
O289        O  0.71999223  0.56808730  0.52537646    -0.54200
C290        C  0.61204267  0.47328945  0.53270250     0.79600
C291        C  0.64032601  0.58532719  0.57246971     0.82000
Cd292      Cd  0.66777208  0.53658786  0.57924147     1.37500
O293        O  0.66026092  0.50811890  0.65671726    -0.53000
O294        O  0.62155014  0.55358752  0.58791885    -0.51800
C295        C  0.73312543  0.54823421  0.53479589     0.81900
O296        O  0.67220091  0.59514329  0.55968365    -0.54200
O297        O  0.69318247  0.56606352  0.65540961    -0.52700
O298        O  0.63150117  0.50228399  0.51061030    -0.52700
O299        O  0.71685359  0.52389406  0.56515851    -0.51800
O300        O  0.85511521  0.47258609  0.42541934    -0.53000
C301        C  0.85703519  0.53650660  0.32211077     0.79600
O302        O  0.84934830  0.56973355  0.47197007    -0.54200
C303        C  0.86341953  0.47364659  0.46816209     0.79600
C304        C  0.94577094  0.58429193  0.42621461     0.82000
Cd305      Cd  0.86922665  0.53590610  0.42132819     1.37500
O306        O  0.84715148  0.50743608  0.34410130    -0.53000
O307        O  0.93217507  0.55406804  0.40596141    -0.51800
C308        C  0.81606286  0.54759445  0.46708335     0.81900
O309        O  0.92417691  0.59281880  0.44441679    -0.54200
O310        O  0.87122252  0.56526343  0.34590093    -0.52700
O311        O  0.87374650  0.50299864  0.48965337    -0.52700
O312        O  0.80737921  0.52078821  0.44073994    -0.51800
C313        C  0.76448157  0.55219688  0.51121876    -0.08500
C314        C  0.78907880  0.55198079  0.49103198    -0.10000
C315        C  0.85408979  0.53676140  0.22970176    -0.08500
C316        C  0.85379894  0.53691699  0.27201692    -0.10000
C317        C  0.68178216  0.53731930  0.77151629    -0.08500
C318        C  0.68192944  0.53751623  0.72919190    -0.10000
C319        C  0.78729510  0.54858710  0.01199460    -0.08500
C320        C  0.76278601  0.54881073  0.99159810    -0.10000
C321        C  0.55808765  0.41705196  0.49092277    -0.08500
C322        C  0.58327662  0.44225973  0.50994388    -0.10000
C323        C  0.44824288  0.21113847  0.50923151    -0.08500
C324        C  0.44808708  0.23576832  0.48906656    -0.10000
C325        C  0.58411933  0.44106657  0.99056204    -0.08500
C326        C  0.55894690  0.41588189  0.00953567    -0.10000
C327        C  0.46287370  0.31837620  0.22904806    -0.08500
C328        C  0.46271526  0.31824344  0.27137548    -0.10000
C329        C  0.46342522  0.14592898  0.77088252    -0.08500
C330        C  0.46324699  0.14622545  0.72856612    -0.10000
C331        C  0.45152738  0.21268608  0.98885732    -0.08500
C332        C  0.45128447  0.23718249  0.00926956    -0.10000
C333        C  0.55725023  0.13885557  0.50944776    -0.08500
C334        C  0.58229185  0.13873560  0.49036941    -0.10000
C335        C  0.86198174  0.41805111  0.51017254    -0.08500
C336        C  0.86183599  0.44307860  0.49109540    -0.10000
C337        C  0.76393402  0.21151414  0.49027247    -0.08500
C338        C  0.78877248  0.23631197  0.51031994    -0.10000
C339        C  0.55988957  0.14197817  0.99063040    -0.08500
C340        C  0.58480059  0.14184966  0.01006155    -0.10000
C341        C  0.68349129  0.14420615  0.27213645    -0.08500
C342        C  0.68337737  0.14420658  0.22981995    -0.10000
C343        C  0.85857389  0.41559488  0.99060248    -0.08500
C344        C  0.85844934  0.44052407  0.00999190    -0.10000
C345        C  0.85624139  0.31701009  0.77091286    -0.08500
C346        C  0.85618413  0.31682122  0.72858956    -0.10000
C347        C  0.76365312  0.21213804  0.01074840    -0.08500
C348        C  0.78844308  0.23690245  0.99056348    -0.10000
C349        C  0.62588018  0.60811281  0.93095206    -0.08500
C350        C  0.60963730  0.62430041  0.93089526    -0.10000
C351        C  0.60887251  0.98319664  0.07208230    -0.08500
C352        C  0.62501427  0.01570509  0.07205413    -0.10000
C353        C  0.55323315  0.78811481  0.00950567    -0.08500
C354        C  0.55342345  0.76351476  0.98929950    -0.10000
C355        C  0.60947365  0.62510875  0.56984061    -0.08500
C356        C  0.62561208  0.60881809  0.56985339    -0.10000
C357        C  0.53862132  0.68095089  0.77143404    -0.08500
C358        C  0.53842529  0.68081026  0.72910773    -0.10000
C359        C  0.60760363  0.98282155  0.43107768    -0.08500
C360        C  0.62397645  0.01533556  0.43131580    -0.10000
C361        C  0.53818815  0.85303422  0.22861832    -0.08500
C362        C  0.53799452  0.85332104  0.27093261    -0.10000
C363        C  0.54987860  0.78642275  0.48869894    -0.08500
C364        C  0.55012252  0.76192711  0.50909565    -0.10000
C365        C  0.39229451  0.37452789  0.06978367    -0.08500
C366        C  0.37616024  0.39082601  0.06984048    -0.10000
C367        C  0.44335291  0.58222602  0.99076070    -0.08500
C368        C  0.41815270  0.55705135  0.00980898    -0.10000
C369        C  0.98473342  0.37545687  0.92863791    -0.08500
C370        C  0.01724084  0.39161856  0.92855592    -0.10000
C371        C  0.21232692  0.44714218  0.99090531    -0.08500
C372        C  0.23693413  0.44697922  0.01112531    -0.10000
C373        C  0.39198206  0.37519683  0.43059182    -0.08500
C374        C  0.37571639  0.39136346  0.43061901    -0.10000
C375        C  0.41728758  0.55805543  0.49077582    -0.08500
C376        C  0.44246473  0.58322089  0.50977839    -0.10000
C377        C  0.31919855  0.46175281  0.22910421    -0.08500
C378        C  0.31935508  0.46195326  0.27142804    -0.10000
C379        C  0.01753770  0.39258886  0.56966466    -0.08500
C380        C  0.98502326  0.37617763  0.56944775    -0.10000
C381        C  0.14710812  0.46238669  0.72962877    -0.08500
C382        C  0.14739770  0.46222060  0.77194124    -0.10000
C383        C  0.21396748  0.45047500  0.51183138    -0.08500
C384        C  0.23849208  0.45029940  0.49140429    -0.10000
C385        C  0.01637486  0.62293506  0.06917813    -0.08500
C386        C  0.98385762  0.60655659  0.06940802    -0.10000
C387        C  0.13965684  0.55595070  0.99129273    -0.08500
C388        C  0.13955352  0.58099637  0.01037578    -0.10000
C389        C  0.37757260  0.98377434  0.93126917    -0.08500
C390        C  0.39395918  0.01628887  0.93104582    -0.10000
C391        C  0.41923328  0.86057559  0.99028421    -0.08500
C392        C  0.44429538  0.86052204  0.00939744    -0.10000
C393        C  0.21261929  0.76273531  0.01018905    -0.08500
C394        C  0.23745105  0.78755990  0.99016466    -0.10000
C395        C  0.01666805  0.62359945  0.42852921    -0.08500
C396        C  0.98415744  0.60743493  0.42848681    -0.10000
C397        C  0.14301582  0.58362721  0.49039710    -0.08500
C398        C  0.14312628  0.55870570  0.50981791    -0.10000
C399        C  0.14514679  0.68235759  0.22848058    -0.08500
C400        C  0.14513350  0.68221578  0.27080223    -0.10000
C401        C  0.39265338  0.01613197  0.57198887    -0.08500
C402        C  0.37647566  0.98362265  0.57193849    -0.10000
C403        C  0.44151115  0.85733839  0.49062568    -0.08500
C404        C  0.41657943  0.85747406  0.51000549    -0.10000
C405        C  0.31784120  0.85507979  0.77202296    -0.08500
C406        C  0.31792115  0.85510132  0.72970159    -0.10000
C407        C  0.23771852  0.78715666  0.51043218    -0.08500
C408        C  0.21296009  0.76235890  0.49024819    -0.10000
loop_ 
_geom_bond_atom_site_label_1 
_geom_bond_atom_site_label_2 
_geom_bond_distance 
_geom_bond_site_symmetry_2 
_ccdc_geom_bond_type 
O1            C4   1.264       .  A
O1           Cd6   2.471       .  S
C2           O11   1.264       .  A
C2            O7   1.263       .  A
C2          C406   1.435       .  S
O3            C9   1.265       .  A
O3           Cd6   2.488       .  S
C4           O12   1.264       .  A
C4          C404   1.436       .  S
C5           O10   1.264       .  A
C5            O8   1.263       .  A
C5          C407   1.436       .  S
Cd6          O13   2.447       .  S
Cd6          O12   2.465       .  S
Cd6          O11   2.476       .  S
Cd6           O7   2.460       .  S
Cd6          O10   2.482       .  S
Cd6           O8   2.456       .  S
C9           O13   1.262       .  A
C9          C402   1.435       .  S
O14          C17   1.264       .  A
O14         Cd19   2.471       .  S
C15          O24   1.264       .  A
C15          O20   1.263       .  A
C15         C400   1.435       .  S
O16          C22   1.265       .  A
O16         Cd19   2.487       .  S
C17          O25   1.263       .  A
C17         C397   1.435       .  S
C18          O23   1.264       .  A
C18          O21   1.263       .  A
C18         C408   1.436       .  S
Cd19         O26   2.447       .  S
Cd19         O25   2.464       .  S
Cd19         O24   2.475       .  S
Cd19         O20   2.460       .  S
Cd19         O23   2.481       .  S
Cd19         O21   2.457       .  S
C22          O26   1.262       .  A
C22         C395   1.435       .  S
O27          C30   1.263       .  A
O27         Cd32   2.463       .  S
C28          O37   1.263       .  A
C28          O33   1.263       .  A
C28         C391   1.436       .  S
O29          C35   1.265       .  A
O29         Cd32   2.486       .  S
C30          O38   1.264       .  A
C30         C405   1.435       .  S
C31          O36   1.264       .  A
C31          O34   1.262       .  A
C31         C394   1.435       .  S
Cd32         O39   2.443       .  S
Cd32         O38   2.473       .  S
Cd32         O37   2.467       .  S
Cd32         O33   2.472       .  S
Cd32         O36   2.482       .  S
Cd32         O34   2.458       .  S
C35          O39   1.263       .  A
C35         C389   1.435       .  S
O40          C43   1.263       .  A
O40         Cd45   2.462       .  S
C41          O50   1.263       .  A
C41          O46   1.263       .  A
C41         C388   1.436       .  S
O42          C48   1.265       .  A
O42         Cd45   2.486       .  S
C43          O51   1.264       .  A
C43         C399   1.435       .  S
C44          O49   1.264       .  A
C44          O47   1.262       .  A
C44         C393   1.435       .  S
Cd45         O52   2.444       .  S
Cd45         O51   2.474       .  S
Cd45         O50   2.467       .  S
Cd45         O46   2.472       .  S
Cd45         O49   2.482       .  S
Cd45         O47   2.458       .  S
C48          O52   1.262       .  A
C48         C385   1.435       .  S
O53          C56   1.263       .  A
O53         Cd58   2.472       .  S
C54          O63   1.264       .  A
C54          O59   1.263       .  A
C54         C381   1.435       .  S
O55          C61   1.265       .  A
O55         Cd58   2.487       .  S
C56          O64   1.263       .  A
C56         C398   1.435       .  S
C57          O62   1.264       .  A
C57          O60   1.263       .  A
C57         C383   1.434       .  S
Cd58         O65   2.448       .  S
Cd58         O64   2.466       .  S
Cd58         O63   2.475       .  S
Cd58         O59   2.460       .  S
Cd58         O62   2.476       .  S
Cd58         O60   2.455       .  S
C61          O65   1.262       .  A
C61         C379   1.435       .  S
O66          C69   1.264       .  A
O66         Cd71   2.468       .  S
C67          O76   1.264       .  A
C67          O72   1.263       .  A
C67         C378   1.436       .  S
O68          C74   1.265       .  A
O68         Cd71   2.488       .  S
C69          O77   1.264       .  A
C69         C375   1.435       .  S
C70          O75   1.264       .  A
C70          O73   1.263       .  A
C70         C384   1.435       .  S
Cd71         O78   2.443       .  S
Cd71         O77   2.463       .  S
Cd71         O76   2.474       .  S
Cd71         O72   2.461       .  S
Cd71         O75   2.478       .  S
Cd71         O73   2.458       .  S
C74          O78   1.262       .  A
C74         C374   1.435       .  S
O79          C82   1.263       .  A
O79         Cd84   2.463       .  S
C80          O89   1.263       .  A
C80          O85   1.263       .  A
C80         C387   1.436       .  S
O81          C87   1.265       .  A
O81         Cd84   2.482       .  S
C82          O90   1.264       .  A
C82         C382   1.435       .  S
C83          O88   1.264       .  A
C83          O86   1.262       .  A
C83         C371   1.435       .  S
Cd84         O91   2.444       .  S
Cd84         O90   2.470       .  S
Cd84         O89   2.468       .  S
Cd84         O85   2.470       .  S
Cd84         O88   2.481       .  S
Cd84         O86   2.456       .  S
C87          O91   1.263       .  A
C87         C370   1.434       .  S
O92          C95   1.263       .  A
O92         Cd97   2.464       .  S
C93         O102   1.263       .  A
C93          O98   1.263       .  A
C93         C368   1.437       .  S
O94         C100   1.265       .  A
O94         Cd97   2.485       .  S
C95         O103   1.264       .  A
C95         C377   1.436       .  S
C96         O101   1.264       .  A
C96          O99   1.262       .  A
C96         C372   1.435       .  S
Cd97        O104   2.445       .  S
Cd97        O103   2.472       .  S
Cd97        O102   2.471       .  S
Cd97         O98   2.472       .  S
Cd97        O101   2.481       .  S
Cd97         O99   2.458       .  S
C100        O104   1.263       .  A
C100        C366   1.435       .  S
O105        C108   1.264       .  A
O105       Cd110   2.473       .  S
C106        O115   1.264       .  A
C106        O111   1.263       .  A
C106        C362   1.435       .  S
O107        C113   1.265       .  A
O107       Cd110   2.487       .  S
C108        O116   1.263       .  A
C108        C403   1.436       .  S
C109        O114   1.264       .  A
C109        O112   1.263       .  A
C109        C363   1.434       .  S
Cd110       O117   2.448       .  S
Cd110       O116   2.466       .  S
Cd110       O115   2.475       .  S
Cd110       O111   2.461       .  S
Cd110       O114   2.476       .  S
Cd110       O112   2.456       .  S
C113        O117   1.262       .  A
C113        C359   1.435       .  S
O118        C121   1.264       .  A
O118       Cd123   2.468       .  S
C119        O128   1.264       .  A
C119        O124   1.263       .  A
C119        C358   1.436       .  S
O120        C126   1.265       .  A
O120       Cd123   2.488       .  S
C121        O129   1.264       .  A
C121        C376   1.435       .  S
C122        O127   1.264       .  A
C122        O125   1.263       .  A
C122        C364   1.435       .  S
Cd123       O130   2.442       .  S
Cd123       O129   2.463       .  S
Cd123       O128   2.474       .  S
Cd123       O124   2.462       .  S
Cd123       O127   2.478       .  S
Cd123       O125   2.458       .  S
C126        O130   1.262       .  A
C126        C355   1.435       .  S
O131        C134   1.263       .  A
O131       Cd136   2.463       .  S
C132        O141   1.263       .  A
C132        O137   1.263       .  A
C132        C392   1.436       .  S
O133        C139   1.265       .  A
O133       Cd136   2.483       .  S
C134        O142   1.264       .  A
C134        C361   1.435       .  S
C135        O140   1.264       .  A
C135        O138   1.262       .  A
C135        C353   1.435       .  S
Cd136       O143   2.444       .  S
Cd136       O142   2.471       .  S
Cd136       O141   2.469       .  S
Cd136       O137   2.471       .  S
Cd136       O140   2.481       .  S
Cd136       O138   2.457       .  S
C139        O143   1.263       .  A
C139        C351   1.435       .  S
O144        C147   1.263       .  A
O144       Cd149   2.472       .  S
C145        O154   1.264       .  A
C145        O150   1.263       .  A
C145        C357   1.436       .  S
O146        C152   1.264       .  A
O146       Cd149   2.481       .  S
C147        O155   1.263       .  A
C147        C367   1.437       .  S
C148        O153   1.265       .  A
C148        O151   1.263       .  A
C148        C350   1.435       .  S
Cd149       O156   2.458       .  S
Cd149       O155   2.471       .  S
Cd149       O154   2.472       .  S
Cd149       O150   2.465       .  S
Cd149       O153   2.485       .  S
Cd149       O151   2.444       .  S
C152        O156   1.262       .  A
C152        C354   1.435       .  S
O157        C160   1.264       .  A
O157       Cd162   2.471       .  S
C158        O167   1.264       .  A
C158        O163   1.263       .  A
C158        C345   1.435       .  S
O159        C165   1.265       .  A
O159       Cd162   2.487       .  S
C160        O168   1.264       .  A
C160        C343   1.435       .  S
C161        O166   1.264       .  A
C161        O164   1.263       .  A
C161        C348   1.436       .  S
Cd162       O169   2.446       .  S
Cd162       O168   2.464       .  S
Cd162       O167   2.475       .  S
Cd162       O163   2.461       .  S
Cd162       O166   2.481       .  S
Cd162       O164   2.456       .  S
C165        O169   1.262       .  A
C165        C369   1.435       .  S
O170        C173   1.264       .  A
O170       Cd175   2.471       .  S
C171        O180   1.264       .  A
C171        O176   1.263       .  A
C171        C342   1.435       .  S
O172        C178   1.265       .  A
O172       Cd175   2.487       .  S
C173        O181   1.264       .  A
C173        C340   1.435       .  S
C174        O179   1.264       .  A
C174        O177   1.263       .  A
C174        C347   1.436       .  S
Cd175       O182   2.447       .  S
Cd175       O181   2.465       .  S
Cd175       O180   2.475       .  S
Cd175       O176   2.460       .  S
Cd175       O179   2.481       .  S
Cd175       O177   2.457       .  S
C178        O182   1.262       .  A
C178        C352   1.435       .  S
O183        C186   1.263       .  A
O183       Cd188   2.472       .  S
C184        O193   1.264       .  A
C184        O189   1.263       .  A
C184        C346   1.435       .  S
O185        C191   1.264       .  A
O185       Cd188   2.483       .  S
C186        O194   1.263       .  A
C186        C335   1.436       .  S
C187        O192   1.265       .  A
C187        O190   1.262       .  A
C187        C380   1.435       .  S
Cd188       O195   2.458       .  S
Cd188       O194   2.468       .  S
Cd188       O193   2.474       .  S
Cd188       O189   2.462       .  S
Cd188       O192   2.486       .  S
Cd188       O190   2.443       .  S
C191        O195   1.262       .  A
C191        C338   1.435       .  S
O196        C199   1.263       .  A
O196       Cd201   2.462       .  S
C197        O206   1.263       .  A
C197        O202   1.263       .  A
C197        C334   1.436       .  S
O198        C204   1.265       .  A
O198       Cd201   2.486       .  S
C199        O207   1.264       .  A
C199        C341   1.435       .  S
C200        O205   1.264       .  A
C200        O203   1.262       .  A
C200        C337   1.435       .  S
Cd201       O208   2.444       .  S
Cd201       O207   2.473       .  S
Cd201       O206   2.467       .  S
Cd201       O202   2.471       .  S
Cd201       O205   2.482       .  S
Cd201       O203   2.458       .  S
C204        O208   1.262       .  A
C204        C360   1.435       .  S
O209        C212   1.264       .  A
O209       Cd214   2.472       .  S
C210        O219   1.264       .  A
C210        O215   1.263       .  A
C210        C329   1.435       .  S
O211        C217   1.265       .  A
O211       Cd214   2.487       .  S
C212        O220   1.263       .  A
C212        C339   1.435       .  S
C213        O218   1.264       .  A
C213        O216   1.263       .  A
C213        C331   1.435       .  S
Cd214       O221   2.448       .  S
Cd214       O220   2.465       .  S
Cd214       O219   2.476       .  S
Cd214       O215   2.461       .  S
Cd214       O218   2.476       .  S
Cd214       O216   2.456       .  S
C217        O221   1.262       .  A
C217        C390   1.435       .  S
O222        C225   1.264       .  A
O222       Cd227   2.467       .  S
C223        O232   1.264       .  A
C223        O228   1.263       .  A
C223        C327   1.436       .  S
O224        C230   1.265       .  A
O224       Cd227   2.488       .  S
C225        O233   1.263       .  A
C225        C326   1.434       .  S
C226        O231   1.264       .  A
C226        O229   1.262       .  A
C226        C332   1.435       .  S
Cd227       O234   2.442       .  S
Cd227       O233   2.463       .  S
Cd227       O232   2.474       .  S
Cd227       O228   2.461       .  S
Cd227       O231   2.479       .  S
Cd227       O229   2.458       .  S
C230        O234   1.262       .  A
C230        C365   1.435       .  S
O235        C238   1.263       .  A
O235       Cd240   2.464       .  S
C236        O245   1.263       .  A
C236        O241   1.263       .  A
C236        C333   1.436       .  S
O237        C243   1.265       .  A
O237       Cd240   2.483       .  S
C238        O246   1.264       .  A
C238        C330   1.435       .  S
C239        O244   1.264       .  A
C239        O242   1.262       .  A
C239        C323   1.435       .  S
Cd240       O247   2.444       .  S
Cd240       O246   2.471       .  S
Cd240       O245   2.468       .  S
Cd240       O241   2.470       .  S
Cd240       O244   2.481       .  S
Cd240       O242   2.456       .  S
C243        O247   1.263       .  A
C243        C401   1.435       .  S
O248        C251   1.263       .  A
O248       Cd253   2.464       .  S
C249        O258   1.263       .  A
C249        O254   1.263       .  A
C249        C321   1.437       .  S
O250        C256   1.265       .  A
O250       Cd253   2.485       .  S
C251        O259   1.264       .  A
C251        C328   1.436       .  S
C252        O257   1.264       .  A
C252        O255   1.262       .  A
C252        C324   1.435       .  S
Cd253       O260   2.445       .  S
Cd253       O259   2.473       .  S
Cd253       O258   2.472       .  S
Cd253       O254   2.472       .  S
Cd253       O257   2.481       .  S
Cd253       O255   2.457       .  S
C256        O260   1.263       .  A
C256        C373   1.435       .  S
O261        C264   1.263       .  A
O261       Cd266   2.461       .  S
C262        O271   1.264       .  A
C262        O267   1.264       .  A
C262        C325   1.434       .  S
O263        C269   1.264       .  A
O263       Cd266   2.478       .  S
C264        O272   1.264       .  A
C264        C317   1.436       .  S
C265        O270   1.265       .  A
C265        O268   1.262       .  A
C265        C349   1.435       .  S
Cd266       O273   2.458       .  S
Cd266       O272   2.474       .  S
Cd266       O271   2.463       .  S
Cd266       O267   2.467       .  S
Cd266       O270   2.488       .  S
Cd266       O268   2.443       .  S
C269        O273   1.263       .  A
C269        C320   1.435       .  S
O274        C277   1.263       .  A
O274       Cd279   2.460       .  S
C275        O284   1.263       .  A
C275        O280   1.264       .  A
C275        C344   1.435       .  S
O276        C282   1.264       .  A
O276       Cd279   2.476       .  S
C277        O285   1.264       .  A
C277        C315   1.435       .  S
C278        O283   1.265       .  A
C278        O281   1.262       .  A
C278        C386   1.435       .  S
Cd279       O286   2.455       .  S
Cd279       O285   2.476       .  S
Cd279       O284   2.466       .  S
Cd279       O280   2.472       .  S
Cd279       O283   2.488       .  S
Cd279       O281   2.448       .  S
C282        O286   1.263       .  A
C282        C319   1.435       .  S
O287        C290   1.263       .  A
O287       Cd292   2.472       .  S
C288        O297   1.264       .  A
C288        O293   1.263       .  A
C288        C318   1.436       .  S
O289        C295   1.264       .  A
O289       Cd292   2.481       .  S
C290        O298   1.264       .  A
C290        C322   1.437       .  S
C291        O296   1.265       .  A
C291        O294   1.263       .  A
C291        C356   1.435       .  S
Cd292       O299   2.458       .  S
Cd292       O298   2.472       .  S
Cd292       O297   2.472       .  S
Cd292       O293   2.464       .  S
Cd292       O296   2.485       .  S
Cd292       O294   2.444       .  S
C295        O299   1.262       .  A
C295        C313   1.435       .  S
O300        C303   1.263       .  A
O300       Cd305   2.471       .  S
C301        O310   1.264       .  A
C301        O306   1.263       .  A
C301        C316   1.435       .  S
O302        C308   1.264       .  A
O302       Cd305   2.481       .  S
C303        O311   1.263       .  A
C303        C336   1.436       .  S
C304        O309   1.265       .  A
C304        O307   1.263       .  A
C304        C396   1.435       .  S
Cd305       O312   2.456       .  S
Cd305       O311   2.469       .  S
Cd305       O310   2.471       .  S
Cd305       O306   2.463       .  S
Cd305       O309   2.483       .  S
Cd305       O307   2.444       .  S
C308        O312   1.262       .  A
C308        C314   1.435       .  S
C313        C314   1.206       .  T
C315        C316   1.206       .  T
C317        C318   1.206       .  T
C319        C320   1.205   1_554  T
C321        C322   1.207       .  T
C323        C324   1.206       .  T
C325        C326   1.205   1_556  T
C327        C328   1.206       .  T
C329        C330   1.206       .  T
C331        C332   1.206   1_556  T
C333        C334   1.206       .  T
C335        C336   1.206       .  T
C337        C338   1.206       .  T
C339        C340   1.206   1_556  T
C341        C342   1.206       .  T
C343        C344   1.206   1_556  T
C345        C346   1.206       .  T
C347        C348   1.206   1_554  T
C349        C350   1.206       .  T
C351        C352   1.206   1_565  T
C353        C354   1.206   1_554  T
C355        C356   1.206       .  T
C357        C358   1.206       .  T
C359        C360   1.206   1_565  T
C361        C362   1.206       .  T
C363        C364   1.205       .  T
C365        C366   1.206       .  T
C367        C368   1.207   1_556  T
C369        C370   1.206   1_655  T
C371        C372   1.206   1_556  T
C373        C374   1.206       .  T
C375        C376   1.205       .  T
C377        C378   1.206       .  T
C379        C380   1.206   1_455  T
C381        C382   1.206       .  T
C383        C384   1.205       .  T
C385        C386   1.206   1_455  T
C387        C388   1.206   1_556  T
C389        C390   1.206   1_565  T
C391        C392   1.206   1_556  T
C393        C394   1.206   1_554  T
C395        C396   1.206   1_455  T
C397        C398   1.206       .  T
C399        C400   1.206       .  T
C401        C402   1.206   1_545  T
C403        C404   1.206       .  T
C405        C406   1.206       .  T
C407        C408   1.206       .  T
