geometry optimzed in LAMMPS
_audit_creation_date              2020-12-01 
_audit_creation_method            'lammps2cif' 
_symmetry_space_group_name_H-M    'P1' 
_symmetry_Int_Tables_number       1 
_symmetry_cell_setting            triclinic 
loop_ 
_symmetry_equiv_pos_as_xyz 
  x,y,z 
_cell_length_a                    28.5914329 
_cell_length_b                    29.454216922440377 
_cell_length_c                    28.80900228092325 
_cell_angle_alpha                 91.39743744377546 
_cell_angle_beta                  87.3769907076011 
_cell_angle_gamma                 90.36771044991528 
loop_ 
_atom_site_label 
_atom_site_type_symbol 
_atom_site_fract_x 
_atom_site_fract_y 
_atom_site_fract_z 
_atom_site_charge 
C1          C  0.84655265  0.82541761  0.03785075     0.79800
N2          N  0.82291195  0.81059781  0.99963401    -0.78500
C3          C  0.84455283  0.81234335  0.95620083     0.82300
N4          N  0.88847622  0.82858847  0.95150645    -0.78400
C5          C  0.91191601  0.84404840  0.98797157     0.82400
N6          N  0.89077436  0.84301006  0.03135425    -0.80100
C7          C  0.76166224  0.24986569  0.04557348     0.79800
N8          N  0.74827730  0.26895684  0.00457222    -0.78500
C9          C  0.75486706  0.24400218  0.96318649     0.82300
N10         N  0.77548852  0.20276774  0.96424555    -0.78400
C11         C  0.78815320  0.18488497  0.00431823     0.82400
N12         N  0.78103046  0.20840647  0.04406551    -0.80100
C13         C  0.28825475  0.85354971  0.05151367     0.79800
N14         N  0.28465515  0.89905802  0.05666994    -0.78500
C15         C  0.28569422  0.92598053  0.01991391     0.82300
N16         N  0.28967601  0.90701957  0.97667035    -0.78400
C17         C  0.29377476  0.86160027  0.96989813     0.82400
N18         N  0.29267551  0.83394379  0.00773105    -0.80100
C19         C  0.82284114  0.09681010  0.75616360     0.79800
N20         N  0.79952638  0.05641193  0.74742159    -0.78500
C21         C  0.82444863  0.01633359  0.74528831     0.82300
N22         N  0.87093325  0.01759685  0.75210960    -0.78400
C23         C  0.89371651  0.05688095  0.76047811     0.82400
N24         N  0.86945152  0.09608018  0.76316825    -0.80100
C25         C  0.97845898  0.28694701  0.77769010     0.79800
N26         N  0.97712473  0.29116960  0.82460277    -0.78500
C27         C  0.01573723  0.28915415  0.84868788     0.84500
N28         N  0.05715376  0.28254953  0.82521587    -0.78400
C29         C  0.06043117  0.27906018  0.77793673     0.82400
N30         N  0.02051834  0.28108537  0.75329959    -0.80100
C31         C  0.98144742  0.87396392  0.78171445     0.79800
N32         N  0.01905366  0.84489761  0.77599953    -0.78500
C33         C  0.06345200  0.86238148  0.77674308     0.82300
N34         N  0.06965753  0.90716292  0.78048327    -0.78400
C35         C  0.03400261  0.93613592  0.78513983     0.82400
N36         N  0.98931532  0.91967362  0.78721720    -0.80100
C37         C  0.25801263  0.09189072  0.79078002     0.79800
N38         N  0.26513414  0.10089246  0.83532250    -0.78500
C39         C  0.26274360  0.06935234  0.86751100     0.82300
N40         N  0.25487918  0.02522931  0.85440933    -0.78400
C41         C  0.25106703  0.01376054  0.80827698     0.82400
N42         N  0.25183330  0.04776294  0.77589276    -0.80100
C43         C  0.98754341  0.79164392  0.18603613     0.79800
N44         N  0.99133117  0.81142435  0.14421371    -0.78500
C45         C  0.03308342  0.81977438  0.12294506     0.82300
N46         N  0.07232883  0.80840476  0.14379704    -0.78400
C47         C  0.07067372  0.78808389  0.18552683     0.82400
N48         N  0.02768526  0.77996254  0.20784305    -0.80100
C49         C  0.79420315  0.09499411  0.19640736     0.79800
N50         N  0.81383170  0.09088125  0.15249175    -0.78500
C51         C  0.81837026  0.04979264  0.13066767     0.82300
N52         N  0.80432095  0.01236485  0.15296418    -0.78400
C53         C  0.78544903  0.01377965  0.19652949     0.82400
N54         N  0.77981740  0.05570379  0.21922301    -0.80100
C55         C  0.97991979  0.24150550  0.25913048     0.79800
N56         N  0.97645291  0.19871207  0.24352292    -0.78500
C57         C  0.01370861  0.17338034  0.23188490     0.82300
N58         N  0.05716904  0.19080520  0.23737220    -0.78400
C59         C  0.06296406  0.23344654  0.25596303     0.82400
N60         N  0.02368853  0.25993553  0.26634587    -0.80100
Zr61       Zr  0.32027663  0.35818992  0.30091572     2.17500
O62         O  0.36083361  0.40495641  0.35765304    -0.51700
O63         O  0.30307406  0.43738490  0.28585402    -0.74900
O64         O  0.40416412  0.36721524  0.27736786    -0.81700
O65         O  0.22842677  0.31141694  0.40301381    -0.83400
O66         O  0.41976354  0.33646737  0.20509894    -0.79100
O67         O  0.29768547  0.34407066  0.38209200    -0.90700
O68         O  0.24525211  0.45404993  0.23855578    -0.76700
O69         O  0.30882348  0.37005959  0.22132550    -0.86200
O70         O  0.23765957  0.36527219  0.29701628    -0.85800
O71         O  0.35434711  0.29194286  0.26192703    -0.72600
O72         O  0.28664537  0.28839346  0.32783153    -0.84700
Zr73       Zr  0.22624808  0.24012201  0.20165146     2.26400
Zr74       Zr  0.34285133  0.30451409  0.18113575     2.06300
Zr75       Zr  0.20323444  0.29460643  0.32312242     2.10000
Zr76       Zr  0.22558666  0.37617561  0.21675832     1.78800
O77         O  0.17894191  0.23252628  0.37320609    -0.93500
O78         O  0.24779910  0.41444411  0.14483146    -0.41400
O79         O  0.19219529  0.30538521  0.24193879    -0.78000
O80         O  0.25858449  0.31175928  0.17584307    -0.96700
O81         O  0.30887482  0.23359992  0.20716771    -0.90000
O82         O  0.23588397  0.22877524  0.28213408    -0.92800
C83         C  0.27864712  0.46589159  0.26416419     1.00900
C84         C  0.26803323  0.32898181  0.41327704     1.13900
C85         C  0.43259263  0.35792884  0.24226274     1.04600
O86         O  0.37369361  0.36062396  0.12686428    -0.95000
O87         O  0.31643667  0.28562141  0.10238413    -0.90700
O88         O  0.25493567  0.23851652  0.11952356    -0.83900
C89         C  0.28152394  0.26075253  0.09044514     1.11300
O90         O  0.38308146  0.22844530  0.34038589    -0.96900
Zr91       Zr  0.31876759  0.22250905  0.28794973     1.88900
O92         O  0.23843733  0.15946226  0.21781008    -0.73600
O93         O  0.39655795  0.24554710  0.15198365    -0.52900
O94         O  0.38728740  0.18150145  0.25647868    -0.97500
O95         O  0.30023833  0.19023197  0.36368041    -0.54800
O96         O  0.29495381  0.14502111  0.26783036    -0.74100
C97         C  0.26236878  0.13197611  0.24153585     0.98200
O98         O  0.17689940  0.20077605  0.14593290    -0.62900
O99         O  0.14615287  0.34912568  0.35567640    -0.57700
O100        O  0.14149121  0.23907290  0.22523371    -0.94400
O101        O  0.12563012  0.26969750  0.29741959    -0.92800
O102        O  0.15376760  0.41057322  0.24925881    -0.93200
O103        O  0.16417805  0.37059218  0.16099698    -0.92000
C104        C  0.11272484  0.24969293  0.25975854     1.17100
H105        H  0.22616345  0.39072169  0.31592046     0.33000
H106        H  0.24944656  0.31830432  0.14500374     0.43900
H107        H  0.21962324  0.20192166  0.29291019     0.37400
H108        H  0.38690059  0.28786069  0.26799830     0.33900
H109        H  0.23644280  0.44599981  0.14930162     0.25700
H110        H  0.41569395  0.26024889  0.12701312     0.31600
H111        H  0.37973586  0.17275332  0.22426405     0.37500
H112        H  0.13415911  0.38459914  0.25970895     0.32000
H113        H  0.12777057  0.33207205  0.37950996     0.30800
H114        H  0.14971300  0.24329482  0.38950491     0.32500
H115        H  0.30458711  0.15709389  0.35904077     0.31500
H116        H  0.15834867  0.33758968  0.15687360     0.35500
H117        H  0.19709740  0.17759510  0.12981179     0.28200
H118        H  0.33650590  0.42512988  0.37230183     0.32500
H119        H  0.37818541  0.25791701  0.35715068     0.35300
H120        H  0.16445250  0.37142292  0.37373698     0.27900
H121        H  0.15410498  0.18226748  0.16426937     0.40800
H122        H  0.37118120  0.38999205  0.14424519     0.30800
H123        H  0.28234020  0.41711123  0.14475454     0.38500
H124        H  0.26602057  0.19407359  0.36876980     0.30300
H125        H  0.41838037  0.24174946  0.17730064     0.30400
H126        H  0.38148066  0.42575452  0.33949372     0.30600
C127        C  0.24433381  0.08446526  0.24252608     0.79800
N128        N  0.27066599  0.04514173  0.24223308    -0.78500
C129        C  0.24756133  0.00385553  0.23874054     0.82300
N130        N  0.20046209  0.00312978  0.23589622    -0.78400
C131        C  0.17521941  0.04108084  0.23624153     0.82400
N132        N  0.19740613  0.08135872  0.23946732    -0.80100
Zr133      Zr  0.32319394  0.74967768  0.31474354     2.17500
O134        O  0.37667586  0.69728392  0.34960141    -0.51700
O135        O  0.29538110  0.74899844  0.39674369    -0.74900
O136        O  0.40369467  0.78155521  0.32322434    -0.81700
O137        O  0.24003665  0.65044308  0.26047573    -0.83400
O138        O  0.41503096  0.85112374  0.29167390    -0.79100
O139        O  0.30920446  0.66960465  0.29159927    -0.90700
O140        O  0.24177023  0.80283509  0.41805421    -0.76700
O141        O  0.30522553  0.82679369  0.33374007    -0.86200
O142        O  0.23950331  0.75105079  0.32440060    -0.85800
O143        O  0.35398654  0.79141830  0.24913655    -0.72600
O144        O  0.29165986  0.72398150  0.24298592    -0.84700
Zr145      Zr  0.22408251  0.84705829  0.20642504     2.26400
Zr146      Zr  0.33584660  0.86974217  0.26851037     2.06300
Zr147      Zr  0.20785912  0.72673117  0.25168391     2.10000
Zr148      Zr  0.22152510  0.82853522  0.34283393     1.78800
O149        O  0.18389563  0.67709159  0.18812509    -0.93500
O150        O  0.23543713  0.89870811  0.38671628    -0.41400
O151        O  0.19078026  0.80471654  0.27012509    -0.78000
O152        O  0.25172339  0.87267253  0.28043133    -0.96700
O153        O  0.30657380  0.84291655  0.19572586    -0.90000
O154        O  0.23902114  0.76940552  0.18682060    -0.92800
C155        C  0.26749719  0.76928711  0.42691622     1.00900
C156        C  0.28035584  0.63999438  0.27480831     1.13900
C157        C  0.42993320  0.81632420  0.31254614     1.04600
O158        O  0.36061829  0.91641583  0.33396297    -0.95000
O159        O  0.30578082  0.94672625  0.25466030    -0.90700
O160        O  0.24094524  0.92831837  0.21546530    -0.83900
C161        C  0.26842016  0.95766680  0.23436508     1.11300
O162        O  0.37917571  0.70356375  0.18144713    -0.96900
Zr163      Zr  0.32227914  0.76453942  0.17806159     1.88900
O164        O  0.25332145  0.84757078  0.12549640    -0.73600
O165        O  0.38609726  0.90493541  0.20880094    -0.52900
O166        O  0.39739602  0.79061152  0.14512881    -0.97500
O167        O  0.30320244  0.69923904  0.12873256    -0.54800
O168        O  0.30848552  0.79573702  0.10321131    -0.74100
C169        C  0.28198922  0.82898189  0.09508683     0.98200
O170        O  0.16524159  0.89344879  0.17147892    -0.62900
O171        O  0.15547674  0.69179901  0.30975102    -0.57700
O172        O  0.14418194  0.81921673  0.19847738    -0.94400
O173        O  0.12999831  0.74879967  0.22659809    -0.92800
O174        O  0.15108757  0.79805562  0.38180839    -0.93200
O175        O  0.15194032  0.87574138  0.34203812    -0.92000
C176        C  0.11703175  0.78496970  0.20664861     1.17100
H177        H  0.22810661  0.73102560  0.34848056     0.33000
H178        H  0.24052660  0.90206587  0.29097684     0.43900
H179        H  0.22423314  0.76051459  0.15848993     0.37400
H180        H  0.38707875  0.78693889  0.24315334     0.33900
H181        H  0.22100329  0.89354881  0.41805939     0.25700
H182        H  0.39442101  0.93504061  0.22216705     0.31600
H183        H  0.39456669  0.82407566  0.14454079     0.37500
H184        H  0.15827014  0.76592208  0.38761567     0.32000
H185        H  0.13009840  0.71416722  0.31581655     0.30800
H186        H  0.16284201  0.65437548  0.20307332     0.32500
H187        H  0.27896703  0.71004467  0.10823314     0.31500
H188        H  0.15222214  0.88780314  0.31024160     0.35500
H189        H  0.15308996  0.91425492  0.19667060     0.28200
H190        H  0.35640922  0.67390334  0.36450685     0.32500
H191        H  0.39884411  0.71194593  0.20776382     0.35300
H192        H  0.14048277  0.66631709  0.29288447     0.27900
H193        H  0.18274143  0.91324145  0.14937428     0.40800
H194        H  0.37401396  0.94418179  0.31979129     0.30800
H195        H  0.26955169  0.89907746  0.39124766     0.38500
H196        H  0.28625378  0.67818132  0.14994878     0.30300
H197        H  0.41565707  0.88756641  0.20809540     0.30400
H198        H  0.38961795  0.71432818  0.37618663     0.30600
Zr199      Zr  0.82706097  0.25873989  0.19682690     2.17500
O200        O  0.88596448  0.24617016  0.13398684    -0.51700
O201        O  0.81429707  0.17456389  0.19518053    -0.74900
O202        O  0.90701097  0.25288835  0.22694335    -0.81700
O203        O  0.72514060  0.29127779  0.11033099    -0.83400
O204        O  0.92038325  0.28795398  0.29629825    -0.79100
O205        O  0.79698495  0.26012549  0.11735844    -0.90700
O206        O  0.76223106  0.15181407  0.25186426    -0.76700
O207        O  0.81773605  0.24086498  0.27692637    -0.86200
O208        O  0.74600192  0.24278776  0.20926650    -0.85800
O209        O  0.85118345  0.32659546  0.23853454    -0.72600
O210        O  0.78669179  0.32647594  0.17685956    -0.84700
Zr211      Zr  0.71940769  0.35995588  0.31551485     2.26400
Zr212      Zr  0.84062604  0.30856135  0.31941125     2.06300
Zr213      Zr  0.70509676  0.31068977  0.19144117     2.10000
Zr214      Zr  0.73629810  0.22439884  0.28898212     1.78800
O215        O  0.68223838  0.37451514  0.14533551    -0.93500
O216        O  0.76088142  0.17817511  0.35240181    -0.41400
O217        O  0.69541145  0.29291861  0.27236210    -0.78000
O218        O  0.75908599  0.29071082  0.33377607    -0.96700
O219        O  0.80004065  0.37612030  0.30048917    -0.90000
O220        O  0.72741914  0.37794114  0.23500393    -0.92800
C221        C  0.79026557  0.14313129  0.21660549     1.00900
C222        C  0.76162146  0.27096056  0.09314690     1.13900
C223        C  0.93404442  0.26460703  0.26037104     1.04600
O224        O  0.86816262  0.25110817  0.37087299    -0.95000
O225        O  0.82179847  0.32930865  0.40020291    -0.90700
O226        O  0.75244197  0.36586840  0.39494828    -0.83900
C227        C  0.78795740  0.35295624  0.41812000     1.11300
O228        O  0.86863383  0.40068874  0.15774795    -0.96900
Zr229      Zr  0.80845799  0.39348301  0.22006701     1.88900
O230        O  0.73467313  0.44398002  0.31737417    -0.73600
O231        O  0.89240077  0.37017413  0.34306187    -0.52900
O232        O  0.87478525  0.44315301  0.23521549    -0.97500
O233        O  0.77140154  0.42917431  0.15587365    -0.54800
O234        O  0.78617664  0.46536028  0.25944351    -0.74100
C235        C  0.75956600  0.47459818  0.29550754     0.98200
O236        O  0.65581766  0.36781363  0.37444645    -0.62900
O237        O  0.65305955  0.25451746  0.15711021    -0.57700
O238        O  0.63846758  0.36422771  0.28592171    -0.94400
O239        O  0.62513239  0.32389067  0.21937833    -0.92800
O240        O  0.66782205  0.18630301  0.25878428    -0.93200
O241        O  0.67545232  0.21744566  0.35047979    -0.92000
C242        C  0.61124234  0.34928727  0.25367523     1.17100
H243        H  0.73603574  0.21805855  0.18936805     0.33000
H244        H  0.75288470  0.28356346  0.36600363     0.43900
H245        H  0.70838817  0.40376500  0.22834429     0.37400
H246        H  0.88367350  0.33348592  0.23113293     0.33900
H247        H  0.74506471  0.14850258  0.34771965     0.25700
H248        H  0.90438961  0.38343224  0.31360058     0.31600
H249        H  0.90054537  0.42257866  0.24244041     0.37500
H250        H  0.64317059  0.20979704  0.26000098     0.32000
H251        H  0.63439652  0.24171011  0.18348712     0.30800
H252        H  0.64839125  0.37884820  0.15268565     0.32500
H253        H  0.77515347  0.40709723  0.12949570     0.31500
H254        H  0.65250148  0.24136030  0.34432805     0.35500
H255        H  0.65613619  0.33915537  0.39171600     0.28200
H256        H  0.90205378  0.21781314  0.14157879     0.32500
H257        H  0.89161705  0.37647270  0.16264254     0.35300
H258        H  0.63042095  0.27240008  0.14015190     0.27900
H259        H  0.66618770  0.39147692  0.39675596     0.40800
H260        H  0.83939835  0.23900985  0.38667048     0.30800
H261        H  0.79438373  0.17194265  0.34486134     0.38500
H262        H  0.79240975  0.45475533  0.14722524     0.30300
H263        H  0.87162916  0.39385008  0.35750195     0.30400
H264        H  0.90958051  0.27052956  0.13798112     0.30600
Zr265      Zr  0.71462188  0.75598104  0.29979462     2.17500
O266        O  0.65085933  0.70046184  0.30085501    -0.51700
O267        O  0.71004413  0.76478010  0.38620374    -0.74900
O268        O  0.74177115  0.67656316  0.30423810    -0.81700
O269        O  0.62730900  0.85602503  0.28057490    -0.83400
O270        O  0.81302265  0.66119681  0.26935095    -0.79100
O271        O  0.63412560  0.78411392  0.30675419    -0.90700
O272        O  0.76415214  0.81569348  0.41070232    -0.76700
O273        O  0.79444953  0.76137623  0.31948034    -0.86200
O274        O  0.72594388  0.83403115  0.32019320    -0.85800
O275        O  0.75918357  0.73249606  0.23038536    -0.72600
O276        O  0.69682589  0.79875427  0.23242476    -0.84700
Zr277      Zr  0.83558673  0.85879579  0.20426706     2.26400
Zr278      Zr  0.83999113  0.73827508  0.25037981     2.06300
Zr279      Zr  0.70873013  0.87730218  0.25350833     2.10000
Zr280      Zr  0.80586054  0.83970080  0.33958690     1.78800
O281        O  0.65619038  0.90562043  0.19664698    -0.93500
O282        O  0.86340496  0.80690278  0.38867540    -0.41400
O283        O  0.78978747  0.88297144  0.27257842    -0.78000
O284        O  0.85350876  0.81685611  0.27225493    -0.96700
O285        O  0.82324953  0.78136157  0.18323621    -0.90000
O286        O  0.75541520  0.85437897  0.18460842    -0.92800
C287        C  0.72986512  0.78827249  0.41862707     1.00900
C288        C  0.60994991  0.81997946  0.29982132     1.13900
C289        C  0.77525233  0.64884775  0.29152878     1.04600
O290        O  0.88791729  0.71017050  0.31126055    -0.95000
O291        O  0.92137153  0.75603487  0.22568870    -0.90700
O292        O  0.91550188  0.82794113  0.19964417    -0.83900
C293        C  0.93911333  0.79178871  0.20709192     1.11300
O294        O  0.67597833  0.72700665  0.15306713    -0.96900
Zr295      Zr  0.74336160  0.77647806  0.16396692     1.88900
O296        O  0.84317458  0.84812874  0.11858860    -0.73600
O297        O  0.86537819  0.68454204  0.18878742    -0.52900
O298        O  0.76298549  0.70468698  0.12423786    -0.97500
O299        O  0.68630643  0.81024308  0.11503534    -0.54800
O300        O  0.78970539  0.79684798  0.09383409    -0.74100
C301        C  0.82474791  0.82362124  0.08630412     0.98200
O302        O  0.89387022  0.91841489  0.19055345    -0.62900
O303        O  0.68455355  0.92971054  0.31664733    -0.57700
O304        O  0.81311368  0.93967060  0.20574412    -0.94400
O305        O  0.73873213  0.95401468  0.23352508    -0.92800
O306        O  0.78234599  0.91005721  0.38011003    -0.93200
O307        O  0.87106377  0.89195481  0.35046427    -0.92000
C308        C  0.77872765  0.96712083  0.21594853     1.17100
H309        H  0.70535147  0.84341151  0.34609081     0.33000
H310        H  0.88555751  0.82158335  0.28047580     0.43900
H311        H  0.75004025  0.87383115  0.15889827     0.37400
H312        H  0.75143533  0.70155608  0.22184621     0.33900
H313        H  0.85226174  0.77547558  0.39397289     0.25700
H314        H  0.87616186  0.70350068  0.16242833     0.31600
H315        H  0.79752656  0.70525720  0.11991905     0.37500
H316        H  0.78400867  0.90370055  0.41358235     0.32000
H317        H  0.71320254  0.94702905  0.32392441     0.30800
H318        H  0.67654420  0.91306993  0.16913220     0.32500
H319        H  0.70278345  0.83603251  0.09998481     0.31500
H320        H  0.86977254  0.91317313  0.32441579     0.35500
H321        H  0.91513146  0.91678013  0.21663224     0.28200
H322        H  0.65518293  0.68153280  0.32826117     0.32500
H323        H  0.66074737  0.72450529  0.18447870     0.35300
H324        H  0.66428777  0.95196140  0.30214540     0.27900
H325        H  0.91292476  0.90816473  0.16271754     0.40800
H326        H  0.91605053  0.72993960  0.31104522     0.30800
H327        H  0.89196612  0.80320982  0.36821778     0.38500
H328        H  0.66305708  0.82460182  0.13720172     0.30300
H329        H  0.89431422  0.67090108  0.19977727     0.30400
H330        H  0.65740031  0.68002182  0.27354273     0.30600
C331        C  0.25923311  0.26675433  0.04533229     0.79800
N332        N  0.21232906  0.27166628  0.05074264    -0.78500
C333        C  0.18471327  0.27437556  0.01461550     0.82300
N334        N  0.20443018  0.27173244  0.97127900    -0.78400
C335        C  0.25157620  0.26761005  0.96353668     0.82400
N336        N  0.28001486  0.26509684  0.00106935    -0.80100
Zr337      Zr  0.21788940  0.24550695  0.80243553     2.17500
O338        O  0.16533980  0.20617855  0.85706314    -0.51700
O339        O  0.22637683  0.16344759  0.78663089    -0.74900
O340        O  0.13565043  0.25366588  0.78639044    -0.81700
O341        O  0.30934292  0.27654249  0.89951644    -0.83400
O342        O  0.12299002  0.28952685  0.71906678    -0.79100
O343        O  0.23502992  0.25448470  0.88516455    -0.90700
O344        O  0.28438977  0.14367652  0.73400224    -0.76700
O345        O  0.22590313  0.23512081  0.72034329    -0.86200
O346        O  0.29866019  0.22822387  0.79057869    -0.85800
O347        O  0.19560478  0.31721848  0.77113120    -0.72600
O348        O  0.25964271  0.30927371  0.83413127    -0.84700
Zr349      Zr  0.32416462  0.35276208  0.70439156     2.26400
Zr350      Zr  0.20376414  0.30658988  0.68778508     2.06300
Zr351      Zr  0.34099415  0.29311598  0.82024622     2.10000
Zr352      Zr  0.30746853  0.21811503  0.70810447     1.78800
O353        O  0.37536790  0.35050008  0.87077083    -0.93500
O354        O  0.27678857  0.17381178  0.64352963    -0.41400
O355        O  0.34880403  0.28313702  0.73717564    -0.78000
O356        O  0.28472068  0.28666910  0.67386186    -0.96700
O357        O  0.24701676  0.36375407  0.72288324    -0.90000
O358        O  0.31909412  0.36364406  0.78635325    -0.92800
C359        C  0.25333360  0.13392861  0.76529087     1.00900
C360        C  0.26758520  0.26483881  0.91336409     1.13900
C361        C  0.10848325  0.27159474  0.75767518     1.04600
O362        O  0.16611391  0.25402761  0.63402694    -0.95000
O363        O  0.23508177  0.32524172  0.60731957    -0.90700
O364        O  0.30756494  0.35304428  0.62117124    -0.83900
C365        C  0.27562615  0.34070912  0.59298559     1.11300
O366        O  0.18118176  0.37484522  0.86736969    -0.96900
Zr367      Zr  0.23837070  0.37966591  0.80183957     1.88900
O368        O  0.30653543  0.43339208  0.71756597    -0.73600
O369        O  0.15692889  0.37082731  0.66594981    -0.52900
O370        O  0.16757110  0.42360682  0.79334526    -0.97500
O371        O  0.27598415  0.41747688  0.86711503    -0.54800
O372        O  0.25721832  0.45516583  0.77726330    -0.74100
C373        C  0.28301468  0.46375948  0.74151615     0.98200
O374        O  0.38789211  0.39158713  0.66177371    -0.62900
O375        O  0.38866898  0.23142308  0.84670654    -0.57700
O376        O  0.40520450  0.34019595  0.72211871    -0.94400
O377        O  0.42131174  0.30858394  0.79050831    -0.92800
O378        O  0.38016589  0.18045650  0.72485293    -0.93200
O379        O  0.36326373  0.21913207  0.64157905    -0.92000
C380        C  0.43401290  0.32517646  0.75108665     1.17100
H381        H  0.30700959  0.20129281  0.80674068     0.33000
H382        H  0.29268375  0.27839717  0.64204709     0.43900
H383        H  0.33918646  0.38839291  0.79565054     0.37400
H384        H  0.16494608  0.32753951  0.78138799     0.33900
H385        H  0.24514254  0.16391438  0.65463536     0.25700
H386        H  0.17632472  0.38664313  0.64196798     0.31600
H387        H  0.15839617  0.41641999  0.76126627     0.37500
H388        H  0.37833989  0.15033864  0.70897220     0.32000
H389        H  0.40846005  0.22194666  0.81910241     0.30800
H390        H  0.38899622  0.33313363  0.89580422     0.32500
H391        H  0.30222025  0.43568906  0.85360599     0.31500
H392        H  0.37941408  0.24886674  0.64425249     0.35500
H393        H  0.39474712  0.37305064  0.63315564     0.28200
H394        H  0.14509806  0.18643370  0.83808551     0.32500
H395        H  0.19231642  0.39566692  0.89205443     0.35300
H396        H  0.41067708  0.24628728  0.86794814     0.27900
H397        H  0.37391797  0.41978003  0.65093395     0.40800
H398        H  0.19213241  0.23966188  0.61527325     0.30800
H399        H  0.27089852  0.19637852  0.61960577     0.38500
H400        H  0.29116360  0.39285402  0.88358849     0.30300
H401        H  0.13092609  0.35700059  0.64884408     0.30400
H402        H  0.14426119  0.22980664  0.87102552     0.30600
Zr403      Zr  0.21947218  0.85070151  0.82363963     2.17500
O404        O  0.16147446  0.87004687  0.88572957    -0.51700
O405        O  0.23150935  0.93484470  0.82136902    -0.74900
O406        O  0.25279566  0.85573086  0.90104781    -0.81700
O407        O  0.11858104  0.81396084  0.73774317    -0.83400
O408        O  0.32563286  0.82505416  0.90068364    -0.79100
O409        O  0.13669021  0.85078969  0.80507589    -0.90700
O410        O  0.27193708  0.95401290  0.75505342    -0.76700
O411        O  0.29811247  0.86880954  0.80174644    -0.86200
O412        O  0.21989653  0.86492171  0.74252201    -0.85800
O413        O  0.26221145  0.78327239  0.84115319    -0.72600
O414        O  0.19318046  0.78143814  0.78605895    -0.84700
Zr415      Zr  0.31941017  0.74825023  0.69947542     2.26400
Zr416      Zr  0.34182237  0.80267530  0.81910573     2.06300
Zr417      Zr  0.19555309  0.79565983  0.70417649     2.10000
Zr418      Zr  0.29889184  0.88238559  0.72044892     1.78800
O419        O  0.14287157  0.73337943  0.68478811    -0.93500
O420        O  0.36691898  0.92956139  0.73654685    -0.41400
O421        O  0.27482481  0.81396179  0.68151954    -0.78000
O422        O  0.34510159  0.81762821  0.73702086    -0.96700
O423        O  0.31790324  0.73324329  0.78040715    -0.90000
O424        O  0.24018767  0.73007545  0.72015850    -0.92800
C425        C  0.25046665  0.96452835  0.79371628     1.00900
C426        C  0.10763480  0.83757585  0.77441523     1.13900
C427        C  0.29032014  0.84490957  0.92132973     1.04600
O428        O  0.39345275  0.86615211  0.83691758    -0.95000
O429        O  0.41943255  0.78391081  0.78753343    -0.90700
O430        O  0.40139907  0.74437584  0.72187188    -0.83900
C431        C  0.43049398  0.75872321  0.75206111     1.11300
O432        O  0.18785868  0.70296112  0.86982353    -0.96900
Zr433      Zr  0.23850959  0.71520412  0.80093491     1.88900
O434        O  0.30669264  0.66462398  0.69838434    -0.73600
O435        O  0.37642889  0.74655358  0.86788232    -0.52900
O436        O  0.28052412  0.67651946  0.86003123    -0.97500
O437        O  0.16688212  0.67278373  0.78643280    -0.54800
O438        O  0.26221003  0.64399123  0.76176739    -0.74100
C439        C  0.28548892  0.63444000  0.72371120     0.98200
O440        O  0.37371335  0.72961597  0.63401641    -0.62900
O441        O  0.16074856  0.85231431  0.65631714    -0.57700
O442        O  0.29043798  0.75133687  0.62057239    -0.94400
O443        O  0.21419415  0.77364765  0.62302490    -0.92800
O444        O  0.25990219  0.91762313  0.65717058    -0.93200
O445        O  0.35437908  0.89028338  0.65442348    -0.92000
C446        C  0.25150979  0.75895856  0.60122114     1.17100
H447        H  0.19928844  0.88970518  0.73633013     0.33000
H448        H  0.37653735  0.82537589  0.72624453     0.43900
H449        H  0.22892054  0.70460942  0.70202335     0.37400
H450        H  0.25866442  0.77619922  0.87362723     0.33900
H451        H  0.36175885  0.95840228  0.72059968     0.25700
H452        H  0.38335459  0.72000859  0.84698973     0.31600
H453        H  0.29821235  0.65193059  0.84322283     0.37500
H454        H  0.23759484  0.93955693  0.67229642     0.32000
H455        H  0.18564637  0.86020640  0.63282763     0.30800
H456        H  0.11712834  0.74782353  0.66878587     0.32500
H457        H  0.17180445  0.64242574  0.79937852     0.31500
H458        H  0.36058606  0.85875554  0.64319730     0.35500
H459        H  0.39653434  0.75503179  0.63254621     0.28200
H460        H  0.17316238  0.89818097  0.90090849     0.32500
H461        H  0.17420693  0.73316183  0.87759065     0.35300
H462        H  0.13720146  0.83531107  0.63856852     0.27900
H463        H  0.39178561  0.70308466  0.64351632     0.40800
H464        H  0.41467620  0.85426692  0.85990640     0.30800
H465        H  0.36335845  0.93768150  0.77007663     0.38500
H466        H  0.16755176  0.66725649  0.75237820     0.30300
H467        H  0.40751958  0.75910119  0.87522467     0.30400
H468        H  0.16378020  0.84623323  0.90918612     0.30600
Zr469      Zr  0.81860906  0.25409976  0.80680839     2.17500
O470        O  0.87492309  0.22464779  0.85957072    -0.51700
O471        O  0.81997635  0.17212997  0.78668604    -0.74900
O472        O  0.78705642  0.24954838  0.88732655    -0.81700
O473        O  0.92323405  0.29497057  0.71765175    -0.83400
O474        O  0.71624351  0.28307405  0.90078450    -0.79100
O475        O  0.90046154  0.26971999  0.78885640    -0.90700
O476        O  0.76827577  0.15256781  0.73226441    -0.76700
O477        O  0.73823593  0.24009638  0.79512093    -0.86200
O478        O  0.81751444  0.24073392  0.72504906    -0.85800
O479        O  0.77936096  0.32229240  0.83513762    -0.72600
O480        O  0.84799050  0.32173516  0.77062867    -0.84700
Zr481      Zr  0.72601756  0.36273817  0.70347168     2.26400
Zr482      Zr  0.69800936  0.30897014  0.82152512     2.06300
Zr483      Zr  0.84591245  0.30877580  0.68819068     2.10000
Zr484      Zr  0.73714355  0.22659793  0.71285773     1.78800
O485        O  0.89845632  0.36895670  0.66114145    -0.93500
O486        O  0.66729422  0.18520330  0.73966009    -0.41400
O487        O  0.76492928  0.29469737  0.67514536    -0.78000
O488        O  0.69731907  0.29359768  0.73875847    -0.96700
O489        O  0.72791066  0.37696914  0.78511275    -0.90000
O490        O  0.80614821  0.37685588  0.71594781    -0.92800
C491        C  0.80073559  0.14267430  0.75948762     1.00900
C492        C  0.93198768  0.28248825  0.75862046     1.13900
C493        C  0.75205015  0.26144173  0.91471842     1.04600
O494        O  0.63565993  0.25864473  0.84973271    -0.95000
O495        O  0.62124412  0.32657952  0.78871430    -0.90700
O496        O  0.64171740  0.35849828  0.71940388    -0.83900
C497        C  0.61108653  0.34294932  0.74917951     1.11300
O498        O  0.86509740  0.38548275  0.85924172    -0.96900
Zr499      Zr  0.80904148  0.38930984  0.79823396     1.88900
O500        O  0.72946345  0.44372432  0.72656904    -0.73600
O501        O  0.67341456  0.37294713  0.87183518    -0.52900
O502        O  0.78127493  0.42556842  0.87129333    -0.97500
O503        O  0.87828755  0.43349734  0.77537049    -0.54800
O504        O  0.78259350  0.46438201  0.77897535    -0.74100
C505        C  0.74964774  0.47370447  0.75245673     0.98200
O506        O  0.68199768  0.39751200  0.64311595    -0.62900
O507        O  0.88113673  0.25023467  0.63669594    -0.57700
O508        O  0.75761239  0.36504250  0.62246205    -0.94400
O509        O  0.82705141  0.32898649  0.60916707    -0.92800
O510        O  0.76313657  0.19116627  0.63901945    -0.93200
O511        O  0.67625994  0.22338175  0.65632611    -0.92000
C512        C  0.79250959  0.35194907  0.59540783     1.17100
H513        H  0.83698760  0.21551178  0.71464463     0.33000
H514        H  0.66689504  0.28425786  0.72921436     0.43900
H515        H  0.81718224  0.40315912  0.69920030     0.37400
H516        H  0.78423066  0.32844951  0.86756413     0.33900
H517        H  0.66847526  0.15612237  0.72167619     0.25700
H518        H  0.65153522  0.39022176  0.85339659     0.31600
H519        H  0.75570778  0.44601718  0.86318885     0.37500
H520        H  0.76799510  0.21669983  0.61755608     0.32000
H521        H  0.89960336  0.23101775  0.65673473     0.30800
H522        H  0.90790564  0.38506397  0.68981541     0.32500
H523        H  0.90495132  0.41260013  0.77812017     0.31500
H524        H  0.67351304  0.25498138  0.64582378     0.35500
H525        H  0.66182316  0.37293143  0.63101419     0.28200
H526        H  0.85965332  0.19794387  0.87408221     0.32500
H527        H  0.88289096  0.35723471  0.85214880     0.35300
H528        H  0.85465366  0.23066066  0.62761813     0.27900
H529        H  0.66017578  0.41923772  0.65933828     0.40800
H530        H  0.62130081  0.27480452  0.87730963     0.30800
H531        H  0.67344774  0.17666953  0.77182869     0.38500
H532        H  0.88165516  0.45634300  0.80082231     0.30300
H533        H  0.65329424  0.35927742  0.89671507     0.30400
H534        H  0.87705488  0.24766958  0.88504194     0.30600
Zr535      Zr  0.81200761  0.86926845  0.80832815     2.17500
O536        O  0.80378926  0.93099316  0.86611186    -0.51700
O537        O  0.89838115  0.87834317  0.79953423    -0.74900
O538        O  0.82602887  0.84310350  0.88612460    -0.81700
O539        O  0.78687665  0.95151778  0.70928066    -0.83400
O540        O  0.80231604  0.77039881  0.89923724    -0.79100
O541        O  0.81234755  0.94761443  0.78280078    -0.90700
O542        O  0.92709658  0.82162527  0.75183430    -0.76700
O543        O  0.83846311  0.79288029  0.80055764    -0.86200
O544        O  0.83381689  0.85951968  0.72806738    -0.85800
O545        O  0.74675379  0.82198209  0.83359638    -0.72600
O546        O  0.74227103  0.88360089  0.76746299    -0.84700
Zr547      Zr  0.72663564  0.74734933  0.70328484     2.26400
Zr548      Zr  0.77369789  0.74468537  0.82411769     2.06300
Zr549      Zr  0.76439420  0.87268803  0.68676199     2.10000
Zr550      Zr  0.85999676  0.78303596  0.72034933     1.78800
O551        O  0.69724059  0.91819970  0.66841898    -0.93500
O552        O  0.91052134  0.72454275  0.74881674    -0.41400
O553        O  0.79096942  0.79544413  0.67843501    -0.78000
O554        O  0.79714156  0.73327967  0.74348988    -0.96700
O555        O  0.70395202  0.75800623  0.78315637    -0.90000
O556        O  0.69959727  0.82385569  0.71008460    -0.92800
C557        C  0.93256526  0.85670125  0.77816462     1.00900
C558        C  0.80385931  0.96972530  0.74614864     1.13900
C559        C  0.82073079  0.80827956  0.91205935     1.04600
O560        O  0.83349150  0.69271427  0.84787375    -0.95000
O561        O  0.75302447  0.66568522  0.80246831    -0.90700
O562        O  0.73421032  0.66834660  0.72668981    -0.83900
C563        C  0.74050650  0.64668819  0.76419859     1.11300
O564        O  0.66157568  0.89727714  0.84552762    -0.96900
Zr565      Zr  0.67810622  0.83472809  0.79048874     1.88900
O566        O  0.64112367  0.73509484  0.71735367    -0.73600
O567        O  0.71451359  0.72192123  0.88270582    -0.52900
O568        O  0.63416040  0.81270831  0.86083481    -0.97500
O569        O  0.62452099  0.88869195  0.75864645    -0.54800
O570        O  0.61123594  0.78948594  0.76705111    -0.74100
C571        C  0.60670792  0.75384964  0.74117603     0.98200
O572        O  0.71318669  0.69333050  0.63959322    -0.62900
O573        O  0.81583581  0.89971277  0.62325719    -0.57700
O574        O  0.72710420  0.77057449  0.62224597    -0.94400
O575        O  0.74777130  0.84392668  0.60855750    -0.92800
O576        O  0.90485180  0.81418417  0.65454905    -0.93200
O577        O  0.87519716  0.72522576  0.65976995    -0.92000
C578        C  0.73361840  0.80449008  0.59510607     1.17100
H579        H  0.85818550  0.88058473  0.71846923     0.33000
H580        H  0.80907137  0.70299926  0.73766218     0.43900
H581        H  0.67330361  0.82796150  0.69073602     0.37400
H582        H  0.73867317  0.82840008  0.86601137     0.33900
H583        H  0.94181957  0.73080432  0.73413533     0.25700
H584        H  0.72788905  0.69489713  0.89685859     0.31600
H585        H  0.65431239  0.79054342  0.87546992     0.37500
H586        H  0.93689862  0.80221361  0.65708626     0.32000
H587        H  0.81847804  0.93300440  0.62792409     0.30800
H588        H  0.70711800  0.93333961  0.63924400     0.32500
H589        H  0.61547467  0.87528069  0.72850185     0.31500
H590        H  0.84765092  0.72617830  0.64019512     0.35500
H591        H  0.74125104  0.67374196  0.63703753     0.28200
H592        H  0.83392732  0.93220972  0.88173601     0.32500
H593        H  0.68961748  0.89965003  0.86438663     0.35300
H594        H  0.84716743  0.88798171  0.62975151     0.27900
H595        H  0.68741263  0.67326117  0.65094384     0.40800
H596        H  0.84713840  0.67940218  0.81844496     0.30800
H597        H  0.91375576  0.73244379  0.78212974     0.38500
H598        H  0.64433585  0.91520292  0.75031089     0.30300
H599        H  0.71508972  0.74577860  0.90748589     0.30400
H600        H  0.78062374  0.92005055  0.88994642     0.30600
C601        C  0.55907503  0.73234715  0.74032174     0.79800
N602        N  0.55491603  0.68647463  0.73204873    -0.78500
C603        C  0.51181807  0.66619138  0.73437999     0.82300
N604        N  0.47381719  0.69181386  0.74251345    -0.78400
C605        C  0.47632178  0.73675616  0.74894923     0.82400
N606        N  0.51916706  0.75780775  0.74884735    -0.80100
C607        C  0.27890659  0.50687449  0.71777592     0.79800
N608        N  0.28166517  0.55013314  0.73619590    -0.78500
C609        C  0.28515595  0.58612759  0.70630496     0.82300
N610        N  0.28758212  0.57756010  0.65928005    -0.78400
C611        C  0.28318708  0.53424460  0.64230982     0.82400
N612        N  0.27778638  0.50052911  0.67188654    -0.80100
C613        C  0.56434097  0.33595871  0.72962046     0.79800
N614        N  0.56459082  0.33319362  0.68225975    -0.78500
C615        C  0.52525391  0.32375513  0.65973821     0.82300
N616        N  0.48511876  0.31864145  0.68467064    -0.78400
C617        C  0.48262118  0.32275772  0.73154492     0.82400
N618        N  0.52273692  0.33097197  0.75512281    -0.80100
C619        C  0.72731591  0.51911362  0.75495778     0.79800
N620        N  0.74879728  0.56036700  0.76412517    -0.78500
C621        C  0.72225939  0.59945822  0.76375201     0.82300
N622        N  0.67668410  0.59642992  0.75350629    -0.78400
C623        C  0.65619738  0.55614823  0.74489894     0.82400
N624        N  0.68163949  0.51814784  0.74539291    -0.80100
C625        C  0.56434028  0.37072218  0.25269189     0.79800
N626        N  0.52205613  0.35075461  0.24192072    -0.78500
C627        C  0.48159581  0.37675005  0.24572416     0.82300
N628        N  0.48479128  0.42100460  0.26056165    -0.78400
C629        C  0.52689175  0.44015832  0.26904932     0.82400
N630        N  0.56537724  0.41466069  0.26499813    -0.80100
C631        C  0.75910276  0.52272238  0.31552076     0.79800
N632        N  0.74405431  0.52831836  0.36089211    -0.78500
C633        C  0.74366772  0.57004142  0.38193422     0.82300
N634        N  0.75748459  0.60623495  0.35774744    -0.78400
C635        C  0.77124383  0.60323211  0.31276159     0.82400
N636        N  0.77245428  0.56094379  0.29058169    -0.80100
C637        C  0.56217556  0.81968456  0.32418702     0.79800
N638        N  0.56239286  0.80392647  0.36794266    -0.78500
C639        C  0.52257247  0.79474655  0.39275038     0.82300
N640        N  0.48110216  0.80052336  0.37346886    -0.78400
C641        C  0.47841773  0.81631727  0.33004325     0.82400
N642        N  0.51947052  0.82569477  0.30421887    -0.80100
C643        C  0.29824520  0.51255128  0.26449506     0.79800
N644        N  0.27419007  0.55317862  0.26458589    -0.78500
C645        C  0.29945399  0.59314053  0.26957045     0.82300
N646        N  0.34613319  0.59114728  0.27470077    -0.78400
C647        C  0.36890414  0.55151012  0.27476700     0.82400
N648        N  0.34486895  0.51296515  0.26961706    -0.80100
C649        C  0.71011868  0.78489197  0.46771320     0.79800
N650        N  0.73358431  0.80086483  0.50595237    -0.78500
C651        C  0.71219773  0.79778689  0.54960764     0.82300
N652        N  0.66928385  0.77952098  0.55407140    -0.78400
C653        C  0.64663323  0.76283611  0.51783203     0.82400
N654        N  0.66710696  0.76506510  0.47447557    -0.80100
C655        C  0.79271449  0.37292869  0.46590796     0.79800
N656        N  0.78533884  0.41796209  0.46910013    -0.78500
C657        C  0.77928689  0.43997776  0.51049726     0.82300
N658        N  0.78486907  0.41723192  0.54962653    -0.78400
C659        C  0.79483831  0.37243794  0.54858310     0.82400
N660        N  0.79749868  0.34903795  0.50623047    -0.80100
C661        C  0.25974058  0.74641623  0.47133396     0.79800
N662        N  0.26092148  0.70069064  0.46804316    -0.78500
C663        C  0.25603003  0.67516583  0.50579017     0.82300
N664        N  0.24930558  0.69582502  0.54799066    -0.78400
C665        C  0.24820698  0.74154308  0.55294312     0.82400
N666        N  0.25400707  0.76774467  0.51422207    -0.80100
C667        C  0.28807271  0.32826695  0.46044552     0.79800
N668        N  0.26550216  0.33198952  0.50405124    -0.78500
C669        C  0.29266723  0.33880925  0.54253466     0.82300
N670        N  0.34009407  0.34309629  0.53585340    -0.78400
C671        C  0.36143157  0.33844784  0.49332153     0.82400
N672        N  0.33517366  0.33032177  0.45701708    -0.80100
O673        O  0.96732055  0.95810950  0.92322558    -0.86900
O674        O  0.19260115  0.04278969  0.02234321    -0.87000
O675        O  0.10623170  0.98741469  0.87608080    -0.88700
O676        O  0.09267491  0.92489505  0.01236257    -0.87500
O677        O  0.04464060  0.94662292  0.07506043    -0.87000
O678        O  0.10288034  0.05933888  0.84642581    -0.88400
O679        O  0.17314085  0.98494923  0.97135204    -0.86900
O680        O  0.03826892  0.92566837  0.93662438    -0.86500
Zr681      Zr  0.08999817  0.98762987  0.96017986     2.84300
O682        O  0.09654394  0.01936080  0.03539749    -1.08500
O683        O  0.04522214  0.03413422  0.91602747    -1.09200
C684        C  0.99432951  0.92377116  0.92806537     1.06200
C685        C  0.20210353  0.00772408  0.99596324     1.06200
C686        C  0.10442096  0.01581537  0.84256401     1.09200
C687        C  0.07059925  0.91773104  0.05141027     1.06900
H688        H  0.15222674  0.05606316  0.93946651     0.32500
O689        O  0.12197915  0.06011449  0.95506743    -1.29400
H690        H  0.00057054  0.96434039  0.00290014     0.32200
O691        O  0.01555748  0.99294757  0.99639661    -1.31100
O692        O  0.12478655  0.17315064  0.05341044    -0.86900
O693        O  0.90384621  0.08357135  0.94652881    -0.88400
O694        O  0.16063174  0.13022697  0.91191583    -0.86900
O695        O  0.06784974  0.03763499  0.13657832    -0.87000
O696        O  0.94230500  0.99576840  0.07255644    -0.86700
O697        O  0.02335261  0.10898196  0.84793936    -0.86500
O698        O  0.01239934  0.20987586  0.97177692    -0.86900
O699        O  0.97141946  0.14060505  0.09940946    -0.86300
O700        O  0.06636406  0.18898426  0.91369553    -0.87400
O701        O  0.98093824  0.06928316  0.12886607    -0.86600
O702        O  0.18798767  0.12830162  0.98576212    -0.87000
O703        O  0.96666498  0.05665370  0.86857601    -0.86700
O704        O  0.90886696  0.01528078  0.00487533    -0.86300
O705        O  0.12833620  0.08430812  0.11248114    -0.86700
O706        O  0.05104951  0.20341368  0.04986547    -0.87000
O707        O  0.92065335  0.14279990  0.99667416    -0.88400
Zr708      Zr  0.12564630  0.09332151  0.02962511     2.83100
Zr709      Zr  0.97084689  0.03707837  0.94953186     2.83500
Zr710      Zr  0.07738550  0.10742120  0.91120613     2.84100
Zr711      Zr  0.02128351  0.02559030  0.06914511     2.83400
Zr712      Zr  0.00273025  0.14274444  0.01888332     2.84200
O713        O  0.97380967  0.06940752  0.02401111    -1.08900
O714        O  0.07870179  0.13798687  0.98557389    -1.08400
C715        C  0.09527322  0.20622637  0.05642115     1.06200
C716        C  0.89331320  0.11969854  0.97000402     1.08800
C717        C  0.19331200  0.13277351  0.94177668     1.06400
C718        C  0.10333942  0.06357806  0.14372885     1.06700
C719        C  0.90712142  0.00251283  0.04732198     1.06300
C720        C  0.98658268  0.08478284  0.84008416     1.05900
C721        C  0.04117880  0.21837548  0.93719701     1.06300
C722        C  0.97024199  0.11144794  0.13239606     1.05800
H723        H  0.98197979  0.12998545  0.92555911     0.32500
O724        O  0.00106934  0.11119424  0.94405200    -1.30000
H725        H  0.05331852  0.11484811  0.09308424     0.32500
O726        O  0.05099845  0.09937040  0.06344244    -1.31400
O727        O  0.44934602  0.61738557  0.63430456    -0.86900
O728        O  0.55641410  0.40614040  0.52414560    -0.87000
O729        O  0.39952542  0.47891630  0.59057959    -0.88700
O730        O  0.53632359  0.49819330  0.65181360    -0.87500
O731        O  0.59900197  0.54237987  0.62758732    -0.87000
O732        O  0.36639179  0.49208743  0.52070772    -0.88400
O733        O  0.50903010  0.42151008  0.58920690    -0.86900
O734        O  0.45703788  0.54374108  0.65796081    -0.86500
Zr735      Zr  0.48288455  0.50020115  0.58923226     2.84300
O736        O  0.55596390  0.49489163  0.54992266    -1.08500
O737        O  0.43661489  0.54979788  0.54999239    -1.09200
C738        C  0.45147255  0.58666976  0.66545348     1.06200
C739        C  0.53806281  0.39639306  0.56434927     1.06200
C740        C  0.36452945  0.48145564  0.56364118     1.09200
C741        C  0.57552156  0.51867113  0.65785605     1.06900
H742        H  0.45778315  0.44524310  0.51836808     0.32500
O743        O  0.47292255  0.47421683  0.51398389    -1.29400
H744        H  0.52614000  0.58425807  0.61828592     0.32200
O745        O  0.51884946  0.57202076  0.58822965    -1.31100
O746        O  0.56613379  0.47739267  0.39107175    -0.86900
O747        O  0.46745550  0.68997043  0.50701075    -0.88400
O748        O  0.42189758  0.44691273  0.44135736    -0.86900
O749        O  0.65589321  0.51767735  0.52954528    -0.87000
O750        O  0.59679633  0.64501725  0.57599584    -0.86700
O751        O  0.36136434  0.57400135  0.49169792    -0.86500
O752        O  0.48396251  0.60064349  0.37520021    -0.86900
O753        O  0.61561175  0.62079357  0.43412070    -0.86300
O754        O  0.42477954  0.54989879  0.39288664    -0.87400
O755        O  0.65070334  0.60150845  0.50111945    -0.86600
O756        O  0.49298492  0.41140678  0.44562233    -0.87000
O757        O  0.38673310  0.62474461  0.54711428    -0.86700
O758        O  0.52470304  0.67928475  0.57584366    -0.86300
O759        O  0.62911413  0.46383188  0.47791758    -0.86700
O760        O  0.56295308  0.55219127  0.36974071    -0.87000
O761        O  0.51693291  0.67422988  0.44377799    -0.88400
Zr762      Zr  0.54560705  0.46960762  0.47366817     2.83100
Zr763      Zr  0.47018296  0.62145953  0.55155622     2.83500
Zr764      Zr  0.42771689  0.52455681  0.47314159     2.84100
Zr765      Zr  0.59050679  0.56663881  0.54879715     2.83400
Zr766      Zr  0.53465824  0.59381325  0.43775725     2.84200
O767        O  0.54338995  0.61772862  0.51308186    -1.08900
O768        O  0.50041402  0.52109542  0.43526014    -1.08400
C769        C  0.56855804  0.50957992  0.36123457     1.06200
C770        C  0.49100717  0.70111549  0.46983642     1.08800
C771        C  0.44861028  0.41152519  0.43985397     1.06400
C772        C  0.66144499  0.48472028  0.49974267     1.06700
C773        C  0.56952881  0.67980579  0.57792752     1.06300
C774        C  0.35500048  0.60563370  0.52312165     1.05900
C775        C  0.44739119  0.57772120  0.36564033     1.06300
C776        C  0.65131727  0.61606468  0.45946418     1.05800
H777        H  0.44028909  0.61829716  0.45910007     0.32500
O778        O  0.46018022  0.59759307  0.47451141    -1.30000
H779        H  0.60923370  0.53881434  0.45425698     0.32500
O780        O  0.58036455  0.54107706  0.47270740    -1.31400
C781        C  0.42427209  0.36792845  0.44161981    -0.16800
C782        C  0.40995074  0.35411276  0.48447308    -0.32000
H783        H  0.40515466  0.35766275  0.41146382     0.12200
H784        H  0.42834608  0.36641432  0.51456033     0.12800
C785        C  0.30810626  0.62227434  0.53465098    -0.16800
C786        C  0.27785751  0.63051560  0.50218883    -0.32000
H787        H  0.30401951  0.63894325  0.56872030     0.12200
H788        H  0.28346199  0.61524352  0.46764291     0.12800
C789        C  0.74484727  0.47618685  0.51376149    -0.16800
C790        C  0.70814717  0.46958000  0.48714028    -0.32000
H791        H  0.74165688  0.49728219  0.54522689     0.12200
H792        H  0.71018705  0.44625200  0.45726724     0.12800
C793        C  0.60551110  0.73420384  0.52786927    -0.16800
C794        C  0.59282987  0.72317383  0.57203490    -0.32000
H795        H  0.59139000  0.71488657  0.49908036     0.12200
H796        H  0.60875612  0.73904371  0.60189824     0.12800
C797        C  0.41333431  0.54862833  0.29666873    -0.16800
C798        C  0.42928842  0.58450175  0.32019314    -0.32000
H799        H  0.42341292  0.51476087  0.30633353     0.12200
H800        H  0.42056113  0.61891839  0.31114080     0.12800
C801        C  0.52550997  0.76692194  0.43376064    -0.16800
C802        C  0.48742965  0.74763266  0.45393714    -0.32000
H803        H  0.55981992  0.75313272  0.43955163     0.12200
H804        H  0.45268980  0.76128262  0.44983771     0.12800
C805        C  0.71824411  0.57828996  0.42641070    -0.16800
C806        C  0.69671100  0.61846696  0.43530783    -0.32000
H807        H  0.70733359  0.54880131  0.44579111     0.12200
H808        H  0.70343420  0.64730193  0.41310230     0.12800
C809        C  0.53081967  0.48379386  0.29403107    -0.16800
C810        C  0.57168228  0.49519862  0.31292417    -0.32000
H811        H  0.49873786  0.49873005  0.30847252     0.12200
H812        H  0.60433605  0.47928349  0.30085160     0.12800
C813        C  0.61275118  0.55549728  0.72101406    -0.16800
C814        C  0.59535493  0.51680063  0.70328276    -0.32000
H815        H  0.60361380  0.58777782  0.70669003     0.12200
H816        H  0.60393047  0.48386831  0.71670970     0.12800
C817        C  0.55379747  0.35507673  0.58614004    -0.16800
C818        C  0.52184440  0.33042840  0.60963222    -0.32000
H819        H  0.58983676  0.35540215  0.59636437     0.12200
H820        H  0.48639592  0.32984505  0.59732296     0.12800
C821        C  0.29761928  0.52081666  0.59449936    -0.16800
C822        C  0.31813644  0.47994360  0.58622607    -0.32000
H823        H  0.30587581  0.54767575  0.57128785     0.12200
H824        H  0.31189189  0.45241466  0.61012397     0.12800
C825        C  0.50355847  0.61915889  0.71838044    -0.16800
C826        C  0.45928002  0.60424490  0.71201563    -0.32000
H827        H  0.53175910  0.60356293  0.69777303     0.12200
H828        H  0.42962356  0.62069823  0.73018078     0.12800
C829        C  0.11618626  0.25125482  0.06181604    -0.16800
C830        C  0.13366336  0.26910255  0.02205237    -0.32000
H831        H  0.13516110  0.25658588  0.09327671     0.12200
H832        H  0.11466293  0.26328076  0.99064812     0.12800
C833        C  0.12885836  0.03816775  0.21702218    -0.16800
C834        C  0.11651521  0.07245260  0.19112098    -0.32000
H835        H  0.11531417  0.00431735  0.20943868     0.12200
H836        H  0.13100120  0.10614813  0.19740938     0.12800
C837        C  0.00576671  0.13353839  0.20218705    -0.16800
C838        C  0.96566483  0.12991693  0.17915590    -0.32000
H839        H  0.03608631  0.11419976  0.19022205     0.12200
H840        H  0.93599902  0.15196372  0.18744095     0.12800
C841        C  0.86190728  0.00325789  0.07209170    -0.16800
C842        C  0.84599823  0.04441370  0.08677097    -0.32000
H843        H  0.85040890  0.97250849  0.08939241     0.12200
H844        H  0.86140844  0.07482476  0.07176356     0.12800
C845        C  0.03466109  0.85178074  0.08509475    -0.16800
C846        C  0.07419919  0.87280032  0.07097469    -0.32000
H847        H  0.00123984  0.86521000  0.07550512     0.12200
H848        H  0.10840740  0.86041068  0.07943899     0.12800
C849        C  0.25640458  0.08663874  0.91559006    -0.16800
C850        C  0.24113037  0.12987364  0.92286213    -0.32000
H851        H  0.24609162  0.06175321  0.94057535     0.12200
H852        H  0.25080194  0.15585675  0.89802365     0.12800
C853        C  0.04614979  0.98339859  0.79651057    -0.16800
C854        C  0.09183896  0.99575242  0.79839037    -0.32000
H855        H  0.02018501  0.00177350  0.81776023     0.12200
H856        H  0.11895405  0.97636958  0.77930340     0.12800
C857        C  0.00998210  0.28132737  0.89887738    -0.16800
C858        C  0.04577864  0.26479534  0.92091166    -0.32000
H859        H  0.97461257  0.27296086  0.91160490     0.12200
H860        H  0.08091178  0.27399343  0.90838604     0.12800
C861        C  0.94086827  0.05432690  0.77809720    -0.16800
C862        C  0.96277460  0.09048600  0.79650380    -0.32000
H863        H  0.95172350  0.02049537  0.78695851     0.12200
H864        H  0.95362031  0.12472797  0.78725156     0.12800
C865        C  0.26812587  0.97221111  0.02723380    -0.16800
C866        C  0.25013275  0.99218638  0.99140838    -0.32000
H867        H  0.25549589  0.98179530  0.06230720     0.12200
H868        H  0.26171594  0.98176509  0.95629195     0.12800
C869        C  0.84611694  0.13604827  0.96606671    -0.16800
C870        C  0.82189037  0.14846434  0.00464406    -0.32000
H871        H  0.83385889  0.14284518  0.93181781     0.12200
H872        H  0.83501919  0.14013925  0.03821730     0.12800
C873        C  0.97000260  0.88045518  0.93427066    -0.16800
C874        C  0.95551883  0.86995302  0.97829221    -0.32000
H875        H  0.95294208  0.86572735  0.90449405     0.12200
H876        H  0.97055323  0.88794053  0.00737468     0.12800
loop_ 
_geom_bond_atom_site_label_1 
_geom_bond_atom_site_label_2 
_geom_bond_distance 
_geom_bond_site_symmetry_2 
_ccdc_geom_bond_type 
C1            N2   1.379   1_554  A
C1            N6   1.370       .  A
C1          C301   1.504       .  S
N2            C3   1.372       .  A
C3            N4   1.343       .  A
C3          C559   1.472       .  S
N4            C5   1.341       .  A
C5            N6   1.364   1_556  A
C5          C874   1.477       .  S
C7            N8   1.391       .  A
C7           N12   1.343       .  A
C7          C222   1.491       .  S
N8            C9   1.391   1_554  A
C9           N10   1.355       .  A
C9          C493   1.505       .  S
N10          C11   1.346   1_556  A
C11          N12   1.332       .  A
C11         C870   1.448       .  S
C13          N14   1.349       .  A
C13          N18   1.375       .  A
C13         C169   1.468       .  S
N14          C15   1.337       .  A
C15          N16   1.353   1_554  A
C15         C865   1.462       .  S
N16          C17   1.352       .  A
C17          N18   1.376   1_556  A
C17         C427   1.479       .  S
C19          N20   1.384       .  A
C19          N24   1.357       .  A
C19         C491   1.494       .  S
N20          C21   1.381       .  A
C21          N22   1.353       .  A
C21         C558   1.491   1_545  S
N22          C23   1.346       .  A
C23          N24   1.350       .  A
C23         C861   1.465       .  S
C25          N26   1.353       .  A
C25          N30   1.374   1_655  A
C25         C492   1.465       .  S
N26          C27   1.333   1_655  A
C27          N28   1.349       .  A
C27         C857   1.471       .  S
N28          C29   1.362       .  A
C29          N30   1.374       .  A
C29         C361   1.484       .  S
C31          N32   1.380   1_655  A
C31          N36   1.370       .  A
C31         C557   1.491       .  S
N32          C33   1.368       .  A
C33          N34   1.332       .  A
C33         C426   1.461       .  S
N34          C35   1.334       .  A
C35          N36   1.363   1_455  A
C35         C853   1.466       .  S
C37          N38   1.329       .  A
C37          N42   1.372       .  A
C37         C359   1.465       .  S
N38          C39   1.328       .  A
C39          N40   1.365       .  A
C39         C849   1.468       .  S
N40          C41   1.372       .  A
C41          N42   1.385       .  A
C41         C425   1.500   1_545  S
C43          N44   1.351       .  A
C43          N48   1.383   1_655  A
C43         C293   1.486       .  S
N44          C45   1.341   1_655  A
C45          N46   1.345       .  A
C45         C845   1.458       .  S
N46          C47   1.355       .  A
C47          N48   1.383       .  A
C47         C176   1.488       .  S
C49          N50   1.363       .  A
C49          N54   1.395       .  A
C49         C221   1.522       .  S
N50          C51   1.354       .  A
C51          N52   1.340       .  A
C51         C842   1.466       .  S
N52          C53   1.343       .  A
C53          N54   1.390       .  A
C53         C308   1.504   1_545  S
C55          N56   1.333       .  A
C55          N60   1.383   1_655  A
C55         C223   1.480       .  S
N56          C57   1.330   1_655  A
C57          N58   1.356       .  A
C57         C837   1.458       .  S
N58          C59   1.365       .  A
C59          N60   1.389       .  A
C59         C104   1.506       .  S
Zr61         O62   2.441       .  S
Zr61         O63   2.440       .  S
Zr61         O64   2.477       .  S
Zr61         O67   2.442       .  S
Zr61         O69   2.366       .  S
Zr61         O70   2.381       .  S
Zr61         O71   2.416       .  S
Zr61         O72   2.395       .  S
O62         H118   0.991       .  S
O62         H126   0.990       .  S
O63          C83   1.287       .  A
O64          C85   1.293       .  A
O65         Zr75   2.480       .  S
O65          C84   1.286       .  A
O66         Zr74   2.506       .  S
O66          C85   1.296       .  A
O67          C84   1.292       .  A
O68         Zr76   2.433       .  S
O68          C83   1.275       .  A
O69         Zr74   2.414       .  S
O69         Zr76   2.398       .  S
O70         Zr75   2.418       .  S
O70         Zr76   2.383       .  S
O70         H105   0.966       .  S
O71         Zr74   2.403       .  S
O71         Zr91   2.400       .  S
O71         H108   0.964       .  S
O72         Zr75   2.403       .  S
O72         Zr91   2.397       .  S
Zr73         O98   2.451       .  S
Zr73         O92   2.462       .  S
Zr73        O100   2.487       .  S
Zr73         O88   2.468       .  S
Zr73         O79   2.409       .  S
Zr73         O80   2.418       .  S
Zr73         O81   2.384       .  S
Zr73         O82   2.379       .  S
Zr74         O93   2.434       .  S
Zr74         O86   2.436       .  S
Zr74         O87   2.473       .  S
Zr74         O80   2.432       .  S
Zr74         O81   2.419       .  S
Zr75         O77   2.435       .  S
Zr75         O99   2.438       .  S
Zr75        O101   2.472       .  S
Zr75         O79   2.403       .  S
Zr75         O82   2.416       .  S
Zr76        O102   2.434       .  S
Zr76        O103   2.436       .  S
Zr76         O78   2.440       .  S
Zr76         O79   2.402       .  S
Zr76         O80   2.386       .  S
O77         H114   0.990       .  S
O78         H109   0.990       .  S
O78         H123   0.990       .  S
O80         H106   0.962       .  S
O81         Zr91   2.388       .  S
O82         Zr91   2.392       .  S
O82         H107   0.965       .  S
C83         C643   1.481       .  S
C84         C667   1.499       .  S
C85         C627   1.510       .  S
O86         H122   0.990       .  S
O87          C89   1.289       .  A
O88          C89   1.293       .  A
C89         C331   1.488       .  S
O90         Zr91   2.435       .  S
O90         H119   0.991       .  S
Zr91         O94   2.436       .  S
Zr91         O95   2.436       .  S
Zr91         O96   2.441       .  S
O92          C97   1.291       .  A
O93         H110   0.990       .  S
O93         H125   0.990       .  S
O94         H111   0.990       .  S
O95         H115   0.990       .  S
O95         H124   0.989       .  S
O96          C97   1.279       .  A
C97         C127   1.489       .  S
O98         H117   0.990       .  S
O98         H121   0.989       .  S
O99         H113   0.990       .  S
O99         H120   0.990       .  S
O100        C104   1.295       .  A
O101        C104   1.290       .  A
O102        H112   0.990       .  S
O103        H116   0.990       .  S
C127        N128   1.385       .  A
C127        N132   1.351       .  A
N128        C129   1.384       .  A
C129        N130   1.353       .  A
C129        C161   1.489   1_545  S
N130        C131   1.334       .  A
C131        N132   1.345       .  A
C131        C833   1.461       .  S
Zr133       O134   2.444       .  S
Zr133       O135   2.458       .  S
Zr133       O136   2.500       .  S
Zr133       O139   2.470       .  S
Zr133       O141   2.377       .  S
Zr133       O142   2.397       .  S
Zr133       O143   2.410       .  S
Zr133       O144   2.397       .  S
O134        H190   0.990       .  S
O134        H198   0.990       .  S
O135        C155   1.291       .  A
O136        C157   1.300       .  A
O137       Zr147   2.457       .  S
O137        C156   1.284       .  A
O138       Zr146   2.458       .  S
O138        C157   1.286       .  A
O139        C156   1.297       .  A
O140       Zr148   2.409       .  S
O140        C155   1.273       .  A
O141       Zr146   2.419       .  S
O141       Zr148   2.396       .  S
O142       Zr147   2.411       .  S
O142       Zr148   2.384       .  S
O142        H177   0.965       .  S
O143       Zr146   2.414       .  S
O143       Zr163   2.392       .  S
O143        H180   0.963       .  S
O144       Zr147   2.399       .  S
O144       Zr163   2.374       .  S
Zr145       O170   2.442       .  S
Zr145       O164   2.441       .  S
Zr145       O172   2.441       .  S
Zr145       O160   2.449       .  S
Zr145       O151   2.401       .  S
Zr145       O152   2.410       .  S
Zr145       O153   2.368       .  S
Zr145       O154   2.379       .  S
Zr146       O165   2.437       .  S
Zr146       O158   2.435       .  S
Zr146       O159   2.478       .  S
Zr146       O152   2.416       .  S
Zr146       O153   2.407       .  S
Zr147       O149   2.435       .  S
Zr147       O171   2.436       .  S
Zr147       O173   2.468       .  S
Zr147       O151   2.393       .  S
Zr147       O154   2.411       .  S
Zr148       O174   2.438       .  S
Zr148       O175   2.436       .  S
Zr148       O150   2.436       .  S
Zr148       O151   2.396       .  S
Zr148       O152   2.372       .  S
O149        H186   0.990       .  S
O150        H181   0.990       .  S
O150        H195   0.990       .  S
O152        H178   0.962       .  S
O153       Zr163   2.393       .  S
O154       Zr163   2.387       .  S
O154        H179   0.966       .  S
C155        C661   1.468       .  S
C156        C645   1.489       .  S
C157        C641   1.497       .  S
O158        H194   0.990       .  S
O159        C161   1.287       .  A
O160        C161   1.292       .  A
O162       Zr163   2.438       .  S
O162        H191   0.990       .  S
Zr163       O166   2.435       .  S
Zr163       O167   2.437       .  S
Zr163       O168   2.414       .  S
O164        C169   1.287       .  A
O165        H182   0.990       .  S
O165        H197   0.990       .  S
O166        H183   0.990       .  S
O167        H187   0.990       .  S
O167        H196   0.990       .  S
O168        C169   1.275       .  A
O170        H189   0.990       .  S
O170        H193   0.990       .  S
O171        H185   0.990       .  S
O171        H192   0.990       .  S
O172        C176   1.289       .  A
O173        C176   1.287       .  A
O174        H184   0.990       .  S
O175        H188   0.990       .  S
Zr199       O200   2.439       .  S
Zr199       O201   2.503       .  S
Zr199       O202   2.490       .  S
Zr199       O205   2.483       .  S
Zr199       O207   2.382       .  S
Zr199       O208   2.375       .  S
Zr199       O209   2.420       .  S
Zr199       O210   2.406       .  S
O200        H256   0.990       .  S
O200        H264   0.990       .  S
O201        C221   1.300       .  A
O202        C223   1.301       .  A
O203       Zr213   2.436       .  S
O203        C222   1.280       .  A
O204       Zr212   2.423       .  S
O204        C223   1.276       .  A
O205        C222   1.300       .  A
O206       Zr214   2.470       .  S
O206        C221   1.287       .  A
O207       Zr212   2.417       .  S
O207       Zr214   2.387       .  S
O208       Zr213   2.401       .  S
O208       Zr214   2.376       .  S
O208        H243   0.966       .  S
O209       Zr212   2.407       .  S
O209       Zr229   2.408       .  S
O209        H246   0.965       .  S
O210       Zr213   2.396       .  S
O210       Zr229   2.402       .  S
Zr211       O236   2.438       .  S
Zr211       O230   2.510       .  S
Zr211       O238   2.508       .  S
Zr211       O226   2.517       .  S
Zr211       O217   2.420       .  S
Zr211       O218   2.421       .  S
Zr211       O219   2.374       .  S
Zr211       O220   2.392       .  S
Zr212       O231   2.439       .  S
Zr212       O224   2.435       .  S
Zr212       O225   2.429       .  S
Zr212       O218   2.406       .  S
Zr212       O219   2.397       .  S
Zr213       O215   2.438       .  S
Zr213       O237   2.440       .  S
Zr213       O239   2.419       .  S
Zr213       O217   2.405       .  S
Zr213       O220   2.417       .  S
Zr214       O240   2.435       .  S
Zr214       O241   2.437       .  S
Zr214       O216   2.437       .  S
Zr214       O217   2.408       .  S
Zr214       O218   2.417       .  S
O215        H252   0.990       .  S
O216        H247   0.991       .  S
O216        H261   0.990       .  S
O218        H244   0.965       .  S
O219       Zr229   2.386       .  S
O220       Zr229   2.381       .  S
O220        H245   0.966       .  S
O224        H260   0.990       .  S
O225        C227   1.278       .  A
O226        C227   1.304       .  A
C227        C655   1.496       .  S
O228       Zr229   2.441       .  S
O228        H257   0.990       .  S
Zr229       O232   2.436       .  S
Zr229       O233   2.436       .  S
Zr229       O234   2.451       .  S
O230        C235   1.302       .  A
O231        H248   0.989       .  S
O231        H263   0.990       .  S
O232        H249   0.989       .  S
O233        H253   0.991       .  S
O233        H262   0.990       .  S
O234        C235   1.284       .  A
C235        C631   1.517       .  S
O236        H255   0.991       .  S
O236        H259   0.990       .  S
O237        H251   0.989       .  S
O237        H258   0.990       .  S
O238        C242   1.306       .  A
O239        C242   1.275       .  A
O240        H250   0.990       .  S
O241        H254   0.990       .  S
C242        C625   1.488       .  S
Zr265       O266   2.441       .  S
Zr265       O267   2.494       .  S
Zr265       O268   2.477       .  S
Zr265       O271   2.449       .  S
Zr265       O273   2.380       .  S
Zr265       O274   2.383       .  S
Zr265       O275   2.411       .  S
Zr265       O276   2.415       .  S
O266        H322   0.990       .  S
O266        H330   0.991       .  S
O267        C287   1.298       .  A
O268        C289   1.296       .  A
O269       Zr279   2.502       .  S
O269        C288   1.295       .  A
O270       Zr278   2.459       .  S
O270        C289   1.284       .  A
O271        C288   1.291       .  A
O272       Zr280   2.440       .  S
O272        C287   1.282       .  A
O273       Zr278   2.414       .  S
O273       Zr280   2.389       .  S
O274       Zr279   2.402       .  S
O274       Zr280   2.381       .  S
O274        H309   0.965       .  S
O275       Zr278   2.411       .  S
O275       Zr295   2.398       .  S
O275        H312   0.965       .  S
O276       Zr279   2.404       .  S
O276       Zr295   2.408       .  S
Zr277       O302   2.440       .  S
Zr277       O296   2.480       .  S
Zr277       O304   2.470       .  S
Zr277       O292   2.461       .  S
Zr277       O283   2.409       .  S
Zr277       O284   2.417       .  S
Zr277       O285   2.374       .  S
Zr277       O286   2.388       .  S
Zr278       O297   2.437       .  S
Zr278       O290   2.438       .  S
Zr278       O291   2.459       .  S
Zr278       O284   2.417       .  S
Zr278       O285   2.407       .  S
Zr279       O281   2.438       .  S
Zr279       O303   2.435       .  S
Zr279       O305   2.483       .  S
Zr279       O283   2.410       .  S
Zr279       O286   2.425       .  S
Zr280       O306   2.437       .  S
Zr280       O307   2.436       .  S
Zr280       O282   2.437       .  S
Zr280       O283   2.402       .  S
Zr280       O284   2.404       .  S
O281        H318   0.990       .  S
O282        H313   0.990       .  S
O282        H327   0.990       .  S
O284        H310   0.965       .  S
O285       Zr295   2.378       .  S
O286       Zr295   2.383       .  S
O286        H311   0.966       .  S
C287        C649   1.504       .  S
C288        C637   1.507       .  S
C289        C635   1.491       .  S
O290        H326   0.990       .  S
O291        C293   1.284       .  A
O292        C293   1.292       .  A
O294       Zr295   2.435       .  S
O294        H323   0.990       .  S
Zr295       O298   2.436       .  S
Zr295       O299   2.437       .  S
Zr295       O300   2.450       .  S
O296        C301   1.293       .  A
O297        H314   0.990       .  S
O297        H329   0.990       .  S
O298        H315   0.990       .  S
O299        H319   0.990       .  S
O299        H328   0.990       .  S
O300        C301   1.285       .  A
O302        H321   0.990       .  S
O302        H325   0.991       .  S
O303        H317   0.990       .  S
O303        H324   0.990       .  S
O304        C308   1.296       .  A
O305        C308   1.290       .  A
O306        H316   0.990       .  S
O307        H320   0.990       .  S
C331        N332   1.351       .  A
C331        N336   1.382       .  A
N332        C333   1.339       .  A
C333        N334   1.347   1_554  A
C333        C830   1.473       .  S
N334        C335   1.362       .  A
C335        N336   1.386   1_556  A
C335        C360   1.497       .  S
Zr337       O338   2.434       .  S
Zr337       O339   2.460       .  S
Zr337       O340   2.432       .  S
Zr337       O343   2.463       .  S
Zr337       O345   2.378       .  S
Zr337       O346   2.376       .  S
Zr337       O347   2.417       .  S
Zr337       O348   2.403       .  S
O338        H394   0.991       .  S
O338        H402   0.989       .  S
O339        C359   1.291       .  A
O340        C361   1.285       .  A
O341       Zr351   2.476       .  S
O341        C360   1.289       .  A
O342       Zr350   2.493       .  S
O342        C361   1.293       .  A
O343        C360   1.293       .  A
O344       Zr352   2.412       .  S
O344        C359   1.273       .  A
O345       Zr350   2.425       .  S
O345       Zr352   2.397       .  S
O346       Zr351   2.415       .  S
O346       Zr352   2.389       .  S
O346        H381   0.966       .  S
O347       Zr350   2.415       .  S
O347       Zr367   2.377       .  S
O347        H384   0.961       .  S
O348       Zr351   2.391       .  S
O348       Zr367   2.387       .  S
Zr349       O374   2.444       .  S
Zr349       O368   2.448       .  S
Zr349       O376   2.428       .  S
Zr349       O364   2.465       .  S
Zr349       O355   2.402       .  S
Zr349       O356   2.411       .  S
Zr349       O358   2.373       .  S
Zr349       O357   2.269       .  S
Zr350       O369   2.436       .  S
Zr350       O362   2.443       .  S
Zr350       O363   2.519       .  S
Zr350       O356   2.405       .  S
Zr350       O357   2.322       .  S
Zr351       O353   2.435       .  S
Zr351       O375   2.436       .  S
Zr351       O377   2.458       .  S
Zr351       O355   2.404       .  S
Zr351       O358   2.415       .  S
Zr352       O378   2.435       .  S
Zr352       O379   2.437       .  S
Zr352       O354   2.439       .  S
Zr352       O355   2.398       .  S
Zr352       O356   2.376       .  S
O353        H390   0.990       .  S
O354        H385   0.990       .  S
O354        H399   0.990       .  S
O356        H382   0.960       .  S
O357       Zr367   2.314       .  S
O358       Zr367   2.379       .  S
O358        H383   0.966       .  S
O362        H398   0.990       .  S
O363        C365   1.296       .  A
O364        C365   1.294       .  A
C365        C669   1.511       .  S
O366       Zr367   2.446       .  S
O366        H395   0.990       .  S
Zr367       O370   2.435       .  S
Zr367       O371   2.450       .  S
Zr367       O372   2.401       .  S
O368        C373   1.290       .  A
O369        H386   0.990       .  S
O369        H401   0.991       .  S
O370        H387   0.990       .  S
O371        H391   0.990       .  S
O371        H400   0.990       .  S
O372        C373   1.269       .  A
C373        C607   1.465       .  S
O374        H393   0.990       .  S
O374        H397   0.987       .  S
O375        H389   0.990       .  S
O375        H396   0.990       .  S
O376        C380   1.287       .  A
O377        C380   1.284       .  A
O378        H388   0.990       .  S
O379        H392   0.990       .  S
C380        C617   1.477       .  S
Zr403       O404   2.442       .  S
Zr403       O405   2.502       .  S
Zr403       O406   2.466       .  S
Zr403       O409   2.450       .  S
Zr403       O411   2.368       .  S
Zr403       O412   2.384       .  S
Zr403       O413   2.414       .  S
Zr403       O414   2.418       .  S
O404        H460   0.991       .  S
O404        H468   0.990       .  S
O405        C425   1.297       .  A
O406        C427   1.290       .  A
O407       Zr417   2.422       .  S
O407        C426   1.279       .  A
O408       Zr416   2.450       .  S
O408        C427   1.285       .  A
O409        C426   1.292       .  A
O410       Zr418   2.426       .  S
O410        C425   1.279       .  A
O411       Zr416   2.396       .  S
O411       Zr418   2.385       .  S
O412       Zr417   2.410       .  S
O412       Zr418   2.375       .  S
O412        H447   0.966       .  S
O413       Zr416   2.404       .  S
O413       Zr433   2.401       .  S
O413        H450   0.964       .  S
O414       Zr417   2.404       .  S
O414       Zr433   2.407       .  S
Zr415       O440   2.441       .  S
Zr415       O434   2.487       .  S
Zr415       O442   2.459       .  S
Zr415       O430   2.464       .  S
Zr415       O421   2.404       .  S
Zr415       O422   2.415       .  S
Zr415       O423   2.382       .  S
Zr415       O424   2.377       .  S
Zr416       O435   2.439       .  S
Zr416       O428   2.434       .  S
Zr416       O429   2.421       .  S
Zr416       O422   2.413       .  S
Zr416       O423   2.415       .  S
Zr417       O419   2.437       .  S
Zr417       O441   2.436       .  S
Zr417       O443   2.447       .  S
Zr417       O421   2.392       .  S
Zr417       O424   2.388       .  S
Zr418       O444   2.436       .  S
Zr418       O445   2.435       .  S
Zr418       O420   2.438       .  S
Zr418       O421   2.395       .  S
Zr418       O422   2.397       .  S
O419        H456   0.990       .  S
O420        H451   0.991       .  S
O420        H465   0.990       .  S
O422        H448   0.965       .  S
O423       Zr433   2.379       .  S
O424       Zr433   2.377       .  S
O424        H449   0.966       .  S
O428        H464   0.990       .  S
O429        C431   1.277       .  A
O430        C431   1.293       .  A
C431        C605   1.463       .  S
O432       Zr433   2.435       .  S
O432        H461   0.990       .  S
Zr433       O436   2.437       .  S
Zr433       O437   2.439       .  S
Zr433       O438   2.442       .  S
O434        C439   1.294       .  A
O435        H452   0.990       .  S
O435        H467   0.990       .  S
O436        H453   0.990       .  S
O437        H457   0.991       .  S
O437        H466   0.990       .  S
O438        C439   1.282       .  A
C439        C609   1.497       .  S
O440        H459   0.990       .  S
O440        H463   0.991       .  S
O441        H455   0.990       .  S
O441        H462   0.990       .  S
O442        C446   1.291       .  A
O443        C446   1.285       .  A
O444        H454   0.990       .  S
O445        H458   0.990       .  S
C446        C665   1.478       .  S
Zr469       O470   2.442       .  S
Zr469       O471   2.469       .  S
Zr469       O472   2.457       .  S
Zr469       O475   2.417       .  S
Zr469       O477   2.370       .  S
Zr469       O478   2.380       .  S
Zr469       O479   2.413       .  S
Zr469       O480   2.400       .  S
O470        H526   0.989       .  S
O470        H534   0.991       .  S
O471        C491   1.292       .  A
O472        C493   1.291       .  A
O473       Zr483   2.444       .  S
O473        C492   1.281       .  A
O474       Zr482   2.503       .  S
O474        C493   1.294       .  A
O475        C492   1.285       .  A
O476       Zr484   2.447       .  S
O476        C491   1.282       .  A
O477       Zr482   2.427       .  S
O477       Zr484   2.395       .  S
O478       Zr483   2.410       .  S
O478       Zr484   2.373       .  S
O478        H513   0.965       .  S
O479       Zr482   2.405       .  S
O479       Zr499   2.397       .  S
O479        H516   0.963       .  S
O480       Zr483   2.400       .  S
O480       Zr499   2.388       .  S
Zr481       O506   2.441       .  S
Zr481       O500   2.463       .  S
Zr481       O508   2.466       .  S
Zr481       O496   2.436       .  S
Zr481       O487   2.405       .  S
Zr481       O488   2.420       .  S
Zr481       O489   2.382       .  S
Zr481       O490   2.368       .  S
Zr482       O501   2.437       .  S
Zr482       O494   2.435       .  S
Zr482       O495   2.492       .  S
Zr482       O488   2.417       .  S
Zr482       O489   2.417       .  S
Zr483       O485   2.436       .  S
Zr483       O507   2.439       .  S
Zr483       O509   2.452       .  S
Zr483       O487   2.395       .  S
Zr483       O490   2.413       .  S
Zr484       O510   2.434       .  S
Zr484       O511   2.438       .  S
Zr484       O486   2.438       .  S
Zr484       O487   2.417       .  S
Zr484       O488   2.372       .  S
O485        H522   0.990       .  S
O486        H517   0.990       .  S
O486        H531   0.990       .  S
O488        H514   0.961       .  S
O489       Zr499   2.391       .  S
O490       Zr499   2.395       .  S
O490        H515   0.966       .  S
O494        H530   0.990       .  S
O495        C497   1.293       .  A
O496        C497   1.288       .  A
C497        C613   1.485       .  S
O498       Zr499   2.437       .  S
O498        H527   0.990       .  S
Zr499       O502   2.439       .  S
Zr499       O503   2.437       .  S
Zr499       O504   2.427       .  S
O500        C505   1.292       .  A
O501        H518   0.990       .  S
O501        H533   0.990       .  S
O502        H519   0.990       .  S
O503        H523   0.990       .  S
O503        H532   0.991       .  S
O504        C505   1.275       .  A
C505        C619   1.485       .  S
O506        H525   0.990       .  S
O506        H529   0.990       .  S
O507        H521   0.990       .  S
O507        H528   0.990       .  S
O508        C512   1.293       .  A
O509        C512   1.284       .  A
O510        H520   0.990       .  S
O511        H524   0.990       .  S
C512        C659   1.490       .  S
Zr535       O536   2.440       .  S
Zr535       O537   2.484       .  S
Zr535       O538   2.439       .  S
Zr535       O541   2.439       .  S
Zr535       O543   2.380       .  S
Zr535       O544   2.378       .  S
Zr535       O545   2.417       .  S
Zr535       O546   2.406       .  S
O536        H592   0.990       .  S
O536        H600   0.990       .  S
O537        C557   1.294       .  A
O538        C559   1.288       .  A
O539       Zr549   2.484       .  S
O539        C558   1.291       .  A
O540       Zr548   2.450       .  S
O540        C559   1.284       .  A
O541        C558   1.287       .  A
O542       Zr550   2.424       .  S
O542        C557   1.280       .  A
O543       Zr548   2.409       .  S
O543       Zr550   2.375       .  S
O544       Zr549   2.399       .  S
O544       Zr550   2.380       .  S
O544        H579   0.965       .  S
O545       Zr548   2.413       .  S
O545       Zr565   2.406       .  S
O545        H582   0.966       .  S
O546       Zr549   2.396       .  S
O546       Zr565   2.404       .  S
Zr547       O572   2.441       .  S
Zr547       O566   2.485       .  S
Zr547       O574   2.448       .  S
Zr547       O562   2.452       .  S
Zr547       O553   2.408       .  S
Zr547       O554   2.413       .  S
Zr547       O555   2.376       .  S
Zr547       O556   2.388       .  S
Zr548       O567   2.437       .  S
Zr548       O560   2.434       .  S
Zr548       O561   2.469       .  S
Zr548       O554   2.404       .  S
Zr548       O555   2.402       .  S
Zr549       O551   2.434       .  S
Zr549       O573   2.440       .  S
Zr549       O575   2.453       .  S
Zr549       O553   2.406       .  S
Zr549       O556   2.419       .  S
Zr550       O576   2.435       .  S
Zr550       O577   2.435       .  S
Zr550       O552   2.437       .  S
Zr550       O553   2.395       .  S
Zr550       O554   2.393       .  S
O551        H588   0.990       .  S
O552        H583   0.990       .  S
O552        H597   0.990       .  S
O554        H580   0.965       .  S
O555       Zr565   2.384       .  S
O556       Zr565   2.384       .  S
O556        H581   0.966       .  S
O560        H596   0.990       .  S
O561        C563   1.288       .  A
O562        C563   1.288       .  A
C563        C621   1.483       .  S
O564       Zr565   2.436       .  S
O564        H593   0.990       .  S
Zr565       O568   2.435       .  S
Zr565       O569   2.438       .  S
Zr565       O570   2.435       .  S
O566        C571   1.293       .  A
O567        H584   0.990       .  S
O567        H599   0.990       .  S
O568        H585   0.988       .  S
O569        H589   0.990       .  S
O569        H598   0.990       .  S
O570        C571   1.282       .  A
C571        C601   1.499       .  S
O572        H591   0.990       .  S
O572        H595   0.991       .  S
O573        H587   0.989       .  S
O573        H594   0.990       .  S
O574        C578   1.291       .  A
O575        C578   1.284       .  A
O576        H586   0.990       .  S
O577        H590   0.990       .  S
C578        C651   1.480       .  S
C601        N602   1.372       .  A
C601        N606   1.379       .  A
N602        C603   1.366       .  A
C603        N604   1.335       .  A
C603        C825   1.470       .  S
N604        C605   1.334       .  A
C605        N606   1.369       .  A
C607        N608   1.371       .  A
C607        N612   1.332       .  A
N608        C609   1.382       .  A
C609        N610   1.371       .  A
N610        C611   1.362       .  A
C611        N612   1.328       .  A
C611        C821   1.465       .  S
C613        N614   1.365       .  A
C613        N618   1.378       .  A
N614        C615   1.348       .  A
C615        N616   1.335       .  A
C615        C818   1.469       .  S
N616        C617   1.352       .  A
C617        N618   1.377       .  A
C619        N620   1.383       .  A
C619        N624   1.347       .  A
N620        C621   1.384       .  A
C621        N622   1.351       .  A
N622        C623   1.343       .  A
C623        N624   1.340       .  A
C623        C813   1.447       .  S
C625        N626   1.386       .  A
C625        N630   1.334       .  A
N626        C627   1.390       .  A
C627        N628   1.366       .  A
N628        C629   1.356       .  A
C629        N630   1.335       .  A
C629        C809   1.464       .  S
C631        N632   1.364       .  A
C631        N636   1.392       .  A
N632        C633   1.357       .  A
C633        N634   1.336       .  A
C633        C805   1.460       .  S
N634        C635   1.338       .  A
C635        N636   1.386       .  A
C637        N638   1.354       .  A
C637        N642   1.387       .  A
N638        C639   1.346       .  A
C639        N640   1.346       .  A
C639        C801   1.460       .  S
N640        C641   1.351       .  A
C641        N642   1.390       .  A
C643        N644   1.384       .  A
C643        N648   1.348       .  A
N644        C645   1.385       .  A
C645        N646   1.351       .  A
N646        C647   1.340       .  A
C647        N648   1.332       .  A
C647        C797   1.448       .  S
C649        N650   1.387       .  A
C649        N654   1.366       .  A
N650        C651   1.378       .  A
C651        N652   1.339       .  A
N652        C653   1.336       .  A
C653        N654   1.358       .  A
C653        C793   1.465       .  S
C655        N656   1.345       .  A
C655        N660   1.385       .  A
N656        C657   1.348       .  A
C657        N658   1.342       .  A
C657        C789   1.455       .  S
N658        C659   1.351       .  A
C659        N660   1.386       .  A
C661        N662   1.348       .  A
C661        N666   1.376       .  A
N662        C663   1.339       .  A
C663        N664   1.353       .  A
C663        C786   1.459       .  S
N664        C665   1.351       .  A
C665        N666   1.375       .  A
C667        N668   1.388       .  A
C667        N672   1.347       .  A
N668        C669   1.392       .  A
C669        N670   1.366       .  A
N670        C671   1.348       .  A
C671        N672   1.331       .  A
C671        C782   1.472       .  S
O673       Zr709   2.432   1_565  S
O673        C684   1.291       .  A
O674       Zr708   2.431       .  S
O674        C685   1.290   1_554  A
O675       Zr681   2.446       .  S
O675        C686   1.296   1_565  A
O676       Zr681   2.414   1_554  S
O676        C687   1.286       .  A
O677       Zr711   2.436   1_565  S
O677        C687   1.293       .  A
O678       Zr710   2.404       .  S
O678        C686   1.285       .  A
O679       Zr681   2.415       .  S
O679        C685   1.289   1_565  A
O680       Zr681   2.444       .  S
O680        C684   1.292   1_455  A
Zr681       O682   2.354   1_566  S
Zr681       O683   2.322   1_565  S
Zr681       O691   2.332       .  S
Zr681       O689   2.322   1_565  S
O682       Zr708   2.334       .  S
O682       Zr711   2.327       .  S
O683       Zr709   2.296   1_455  S
O683       Zr710   2.346       .  S
C684        C873   1.460       .  S
C685        C866   1.450   1_545  S
C686        C854   1.449   1_545  S
C687        C846   1.457       .  S
H688        O689   0.963       .  S
O689       Zr708   2.345   1_556  S
O689       Zr710   2.328       .  S
H690        O691   0.961   1_554  S
O691       Zr709   2.326   1_465  S
O691       Zr711   2.297   1_566  S
O692       Zr708   2.433       .  S
O692        C715   1.292       .  A
O693       Zr709   2.368       .  S
O693        C716   1.277       .  A
O694       Zr710   2.470       .  S
O694        C717   1.299       .  A
O695       Zr711   2.423       .  S
O695        C718   1.287       .  A
O696       Zr711   2.416   1_665  S
O696        C719   1.287   1_565  A
O697       Zr710   2.444       .  S
O697        C720   1.292   1_455  A
O698       Zr712   2.433   1_556  S
O698        C721   1.291       .  A
O699       Zr712   2.450   1_655  S
O699        C722   1.295       .  A
O700       Zr710   2.424       .  S
O700        C721   1.289       .  A
O701       Zr711   2.383   1_655  S
O701        C722   1.281       .  A
O702       Zr708   2.381   1_556  S
O702        C717   1.279       .  A
O703       Zr709   2.424       .  S
O703        C720   1.292       .  A
O704       Zr709   2.423   1_554  S
O704        C719   1.287       .  A
O705       Zr708   2.413       .  S
O705        C718   1.287       .  A
O706       Zr712   2.429       .  S
O706        C715   1.289       .  A
O707       Zr712   2.460   1_656  S
O707        C716   1.299       .  A
Zr708       O714   2.324   1_554  S
Zr708       O726   2.311       .  S
Zr709       O713   2.331   1_556  S
Zr709       O724   2.349   1_655  S
Zr710       O714   2.305       .  S
Zr710       O724   2.340       .  S
Zr711       O713   2.338   1_455  S
Zr711       O726   2.335       .  S
Zr712       O713   2.314   1_455  S
Zr712       O714   2.338   1_554  S
Zr712       O726   2.334       .  S
Zr712       O724   2.329   1_554  S
C715        C829   1.459       .  S
C716        C869   1.446       .  S
C717        C850   1.451       .  S
C718        C834   1.450       .  S
C719        C841   1.448       .  S
C720        C862   1.469       .  S
C721        C858   1.460       .  S
C722        C838   1.441       .  S
H723        O724   0.966   1_655  S
H725        O726   0.963       .  S
O727       Zr763   2.436       .  S
O727        C738   1.293       .  A
O728       Zr762   2.426       .  S
O728        C739   1.288       .  A
O729       Zr735   2.459       .  S
O729        C740   1.298       .  A
O730       Zr735   2.418       .  S
O730        C741   1.286       .  A
O731       Zr765   2.419       .  S
O731        C741   1.292       .  A
O732       Zr764   2.385       .  S
O732        C740   1.282       .  A
O733       Zr735   2.440       .  S
O733        C739   1.295       .  A
O734       Zr735   2.422       .  S
O734        C738   1.287       .  A
Zr735       O736   2.335       .  S
Zr735       O737   2.325       .  S
Zr735       O745   2.346       .  S
Zr735       O743   2.311       .  S
O736       Zr762   2.333       .  S
O736       Zr765   2.327       .  S
O737       Zr763   2.313       .  S
O737       Zr764   2.343       .  S
C738        C826   1.452       .  S
C739        C817   1.465       .  S
C740        C822   1.451       .  S
C741        C814   1.452       .  S
H742        O743   0.963       .  S
O743       Zr762   2.337       .  S
O743       Zr764   2.346       .  S
H744        O745   0.961       .  S
O745       Zr763   2.326       .  S
O745       Zr765   2.301       .  S
O746       Zr762   2.441       .  S
O746        C769   1.295       .  A
O747       Zr763   2.421       .  S
O747        C770   1.287       .  A
O748       Zr764   2.450       .  S
O748        C771   1.295       .  A
O749       Zr765   2.405       .  S
O749        C772   1.286       .  A
O750       Zr765   2.428       .  S
O750        C773   1.290       .  A
O751       Zr764   2.431       .  S
O751        C774   1.291       .  A
O752       Zr766   2.377       .  S
O752        C775   1.278       .  A
O753       Zr766   2.441       .  S
O753        C776   1.292       .  A
O754       Zr764   2.452       .  S
O754        C775   1.298       .  A
O755       Zr765   2.394       .  S
O755        C776   1.283       .  A
O756       Zr762   2.422       .  S
O756        C771   1.287       .  A
O757       Zr763   2.398       .  S
O757        C774   1.284       .  A
O758       Zr763   2.414       .  S
O758        C773   1.286       .  A
O759       Zr762   2.404       .  S
O759        C772   1.287       .  A
O760       Zr766   2.397       .  S
O760        C769   1.283       .  A
O761       Zr766   2.426       .  S
O761        C770   1.291       .  A
Zr762       O768   2.331       .  S
Zr762       O780   2.322       .  S
Zr763       O767   2.325       .  S
Zr763       O778   2.341       .  S
Zr764       O768   2.305       .  S
Zr764       O778   2.338       .  S
Zr765       O767   2.317       .  S
Zr765       O780   2.330       .  S
Zr766       O767   2.289       .  S
Zr766       O768   2.350       .  S
Zr766       O780   2.315       .  S
Zr766       O778   2.336       .  S
C769        C810   1.444       .  S
C770        C802   1.461       .  S
C771        C781   1.457       .  S
C772        C790   1.438       .  S
C773        C794   1.447       .  S
C774        C785   1.452       .  S
C775        C798   1.448       .  S
C776        C806   1.446       .  S
H777        O778   0.966       .  S
H779        O780   0.963       .  S
C781        C782   1.354       .  D
C781        H783   1.083       .  S
C782        H784   1.088       .  S
C785        C786   1.330       .  D
C785        H787   1.088       .  S
C786        H788   1.088       .  S
C789        C790   1.338       .  D
C789        H791   1.087       .  S
C790        H792   1.088       .  S
C793        C794   1.354       .  D
C793        H795   1.086       .  S
C794        H796   1.086       .  S
C797        C798   1.331       .  D
C797        H799   1.086       .  S
C798        H800   1.086       .  S
C801        C802   1.340       .  D
C801        H803   1.086       .  S
C802        H804   1.086       .  S
C805        C806   1.351       .  D
C805        H807   1.081       .  S
C806        H808   1.087       .  S
C809        C810   1.348       .  D
C809        H811   1.081       .  S
C810        H812   1.086       .  S
C813        C814   1.340       .  D
C813        H815   1.084       .  S
C814        H816   1.087       .  S
C817        C818   1.334       .  D
C817        H819   1.084       .  S
C818        H820   1.089       .  S
C821        C822   1.354       .  D
C821        H823   1.067       .  S
C822        H824   1.085       .  S
C825        C826   1.356       .  D
C825        H827   1.078       .  S
C826        H828   1.086       .  S
C829        C830   1.346       .  D
C829        H831   1.085       .  S
C830        H832   1.086   1_554  S
C833        C834   1.329       .  D
C833        H835   1.088       .  S
C834        H836   1.087       .  S
C837        C838   1.353   1_455  D
C837        H839   1.079       .  S
C838        H840   1.086       .  S
C841        C842   1.349       .  D
C841        H843   1.086   1_545  S
C842        H844   1.086       .  S
C845        C846   1.337       .  D
C845        H847   1.086       .  S
C846        H848   1.086       .  S
C849        C850   1.357       .  D
C849        H851   1.070       .  S
C850        H852   1.086       .  S
C853        C854   1.357       .  D
C853        H855   1.080   1_565  S
C854        H856   1.087       .  S
C857        C858   1.330       .  D
C857        H859   1.089   1_455  S
C858        H860   1.087       .  S
C861        C862   1.342       .  D
C861        H863   1.085       .  S
C862        H864   1.086       .  S
C865        C866   1.326   1_554  D
C865        H867   1.089       .  S
C866        H868   1.088       .  S
C869        C870   1.327   1_556  D
C869        H871   1.086       .  S
C870        H872   1.087       .  S
C873        C874   1.358       .  D
C873        H875   1.086       .  S
C874        H876   1.084   1_556  S
