geometry optimzed in LAMMPS
_audit_creation_date              2020-12-01 
_audit_creation_method            'lammps2cif' 
_symmetry_space_group_name_H-M    'P1' 
_symmetry_Int_Tables_number       1 
_symmetry_cell_setting            triclinic 
loop_ 
_symmetry_equiv_pos_as_xyz 
  x,y,z 
_cell_length_a                    25.6608302 
_cell_length_b                    25.492108364822982 
_cell_length_c                    25.60320692371447 
_cell_angle_alpha                 89.93832913834186 
_cell_angle_beta                  89.4111041931916 
_cell_angle_gamma                 90.47491930726832 
loop_ 
_atom_site_label 
_atom_site_type_symbol 
_atom_site_fract_x 
_atom_site_fract_y 
_atom_site_fract_z 
_atom_site_charge 
N1          N  0.05494674  0.90223085  0.06293415    -0.06200
N2          N  0.09034377  0.86647273  0.07355708    -0.58400
N3          N  0.93507872  0.93788821  0.09995433    -0.05900
N4          N  0.89943765  0.92720038  0.13611831    -0.60500
N5          N  0.93522654  0.90123054  0.06371022    -0.05500
N6          N  0.89965295  0.86494242  0.07453748    -0.58300
N7          N  0.05469079  0.93889474  0.09914353    -0.05200
N8          N  0.08989830  0.92883252  0.13500364    -0.60800
C9          C  0.11213752  0.88400788  0.11818654     0.95900
C10         C  0.87735369  0.88204505  0.11935912     0.95700
N11         N  0.93529981  0.09928306  0.06448924    -0.06400
N12         N  0.90021199  0.13541385  0.07560568    -0.58900
N13         N  0.05487070  0.06308183  0.09967736    -0.04500
N14         N  0.08941985  0.07407172  0.13608929    -0.60200
N15         N  0.05510912  0.09984371  0.06349158    -0.06400
N16         N  0.08988761  0.13664555  0.07473149    -0.59200
N17         N  0.93522932  0.06271805  0.10086948    -0.04200
N18         N  0.90009722  0.07328208  0.13744291    -0.60300
Mn19       Mn  0.99490418  0.00056371  0.10102209     1.18400
C20         C  0.87823220  0.11831804  0.12080905     0.98000
C21         C  0.11132735  0.11963678  0.11970246     0.98700
N22         N  0.93573521  0.89961620  0.93937623    -0.06500
N23         N  0.90214649  0.86179367  0.92797807    -0.62800
N24         N  0.05502770  0.93781806  0.90216102    -0.05300
N25         N  0.09008253  0.92715306  0.86554655    -0.63500
N26         N  0.05521572  0.90147646  0.93875439    -0.06000
N27         N  0.09037919  0.86541603  0.92776850    -0.63000
N28         N  0.93549567  0.93618830  0.90299694    -0.04900
N29         N  0.90174921  0.92391502  0.86618299    -0.63700
Mn30       Mn  0.99527608  0.89997632  0.00130547     1.10700
C31         C  0.88085824  0.87784610  0.88264825     0.99200
C32         C  0.11212609  0.88228628  0.88240821     0.99300
N33         N  0.05474931  0.09886179  0.93909041    -0.06000
N34         N  0.09041053  0.13502674  0.92825842    -0.61400
N35         N  0.93508207  0.06144010  0.90375246    -0.05300
N36         N  0.90015696  0.07182667  0.86767809    -0.58100
N37         N  0.93516748  0.09833388  0.93980744    -0.06600
N38         N  0.90024931  0.13449425  0.92879333    -0.60900
N39         N  0.05455550  0.06234398  0.90271474    -0.05600
N40         N  0.09008177  0.07297696  0.86644778    -0.58100
Mn41       Mn  0.99508336  0.10035607  0.00164646     1.20200
Mn42       Mn  0.99493597  0.99955493  0.90176698     1.10100
Cl43       Cl  0.99490850  0.00015522  0.00139162    -0.86100
C44         C  0.11238050  0.11796173  0.88330213     0.96300
C45         C  0.87837538  0.11702661  0.88414120     0.96100
C46         C  0.78682183  0.78428755  0.78970903    -0.02600
C47         C  0.78232360  0.78851884  0.21234200    -0.02600
N48         N  0.57627359  0.77414347  0.00180729    -0.36700
N49         N  0.49874174  0.78966410  0.91975953    -0.57300
N50         N  0.41839341  0.79652878  0.00073485    -0.36700
N51         N  0.49597097  0.78554748  0.08282116    -0.57300
C52         C  0.60772342  0.77982493  0.95940117     0.26900
C53         C  0.60639536  0.77995299  0.04456239     0.26900
C54         C  0.38859409  0.80366831  0.95811850     0.26900
C55         C  0.38693843  0.79958143  0.04323376     0.26900
C56         C  0.54059196  0.78077995  0.88885328     0.35500
C57         C  0.45694281  0.79155730  0.88825983     0.35500
C58         C  0.53710899  0.77859216  0.11434468     0.35500
C59         C  0.45299833  0.78495733  0.11359691     0.35500
C60         C  0.65873674  0.78727670  0.97553827    -0.22000
C61         C  0.65787960  0.78751822  0.02895034    -0.22000
C62         C  0.33742825  0.81211228  0.97397143    -0.22000
C63         C  0.33638098  0.80946348  0.02734382    -0.22000
C64         C  0.52553294  0.77776655  0.83709843    -0.23100
C65         C  0.47244690  0.78455225  0.83672318    -0.23100
C66         C  0.52037179  0.77429171  0.16582040    -0.23100
C67         C  0.46694394  0.77806153  0.16532248    -0.23100
C68         C  0.59248506  0.77820316  0.90632670    -0.18400
C69         C  0.58962487  0.77820368  0.09751228    -0.18400
C70         C  0.40147893  0.79168803  0.09595964    -0.18400
C71         C  0.40500917  0.79964733  0.90518022    -0.18400
H72         H  0.69330563  0.79249782  0.95147458     0.14500
H73         H  0.69165180  0.79298549  0.05338671     0.14500
H74         H  0.30370424  0.81827898  0.94978559     0.14500
H75         H  0.30177638  0.81344200  0.05147508     0.14500
H76         H  0.55023194  0.77158886  0.80317322     0.12800
H77         H  0.44810152  0.78444267  0.80245029     0.12800
H78         H  0.54414733  0.76909234  0.20008773     0.12800
H79         H  0.44136619  0.77642256  0.19917699     0.12800
H80         H  0.53701188  0.76517568  0.00144386     0.26000
H81         H  0.45737626  0.78799454  0.00082024     0.26000
C82         C  0.78595877  0.20966909  0.79051393    -0.02600
N83         N  0.78974627  0.99900286  0.58083503    -0.36700
N84         N  0.78392426  0.91659455  0.50202707    -0.57300
N85         N  0.78008241  0.99784023  0.42200946    -0.36700
N86         N  0.77920524  0.08003676  0.50101669    -0.57300
C87         C  0.78244276  0.95631590  0.61162462     0.26900
C88         C  0.78259279  0.04185147  0.61111791     0.26900
C89         C  0.76971653  0.95439611  0.39358885     0.26900
C90         C  0.76591370  0.03970714  0.39308214     0.26900
C91         C  0.79311985  0.88630889  0.54411368     0.35500
C92         C  0.79084598  0.88599083  0.45960864     0.35500
C93         C  0.78829028  0.11152971  0.54238080     0.35500
C94         C  0.78197998  0.11070795  0.45800659     0.35500
C95         C  0.77134888  0.97239682  0.66229440    -0.22000
C96         C  0.77154086  0.02612928  0.66198887    -0.22000
C97         C  0.74910924  0.96896996  0.34582761    -0.22000
C98         C  0.74665182  0.02262975  0.34556737    -0.22000
C99         C  0.80520830  0.83575862  0.52847978    -0.23100
C100        C  0.80403079  0.83562382  0.47472645    -0.23100
C101        C  0.79579923  0.16280104  0.52569648    -0.23100
C102        C  0.79184940  0.16227077  0.47211288    -0.23100
C103        C  0.78802924  0.90320263  0.59635995    -0.18400
C104        C  0.78756057  0.09491137  0.59506876    -0.18400
C105        C  0.77346821  0.09301119  0.40651732    -0.18400
C106        C  0.78152452  0.90220865  0.40788688    -0.18400
H107        H  0.76438532  0.94807667  0.69636564     0.14500
H108        H  0.76448755  0.05074134  0.69570351     0.14500
H109        H  0.73766878  0.94384639  0.31385164     0.14500
H110        H  0.73294544  0.04626879  0.31347859     0.14500
H111        H  0.81371143  0.80249806  0.55319528     0.12800
H112        H  0.81111327  0.80216089  0.44972921     0.12800
H113        H  0.80310452  0.19698944  0.54964156     0.12800
H114        H  0.79537695  0.19597971  0.44654074     0.12800
H115        H  0.80147435  0.99902435  0.54211214     0.26000
H116        H  0.79927601  0.99896512  0.45735222     0.26000
C117        C  0.77939575  0.20965608  0.21114813    -0.02600
N118        N  0.57423416  0.21162194  0.99974905    -0.36700
N119        N  0.49628285  0.21489155  0.91768833    -0.57300
N120        N  0.41472625  0.21330290  0.99882241    -0.36700
N121        N  0.49273223  0.21400384  0.08092912    -0.57300
C122        C  0.60542446  0.21955926  0.95749269     0.26900
C123        C  0.60379503  0.21807203  0.04269355     0.26900
C124        C  0.38471662  0.21331549  0.95581067     0.26900
C125        C  0.38276704  0.21524112  0.04107685     0.26900
C126        C  0.53896266  0.21328254  0.88665904     0.35500
C127        C  0.45473130  0.21122003  0.88614329     0.35500
C128        C  0.53438719  0.21092823  0.11244033     0.35500
C129        C  0.44989414  0.21239390  0.11193108     0.35500
C130        C  0.65583216  0.22992955  0.97388352    -0.22000
C131        C  0.65485650  0.22888031  0.02733282    -0.22000
C132        C  0.33264000  0.21542342  0.97101676    -0.22000
C133        C  0.33142362  0.21659955  0.02451991    -0.22000
C134        C  0.52456562  0.20940527  0.83477158    -0.23100
C135        C  0.47106769  0.20803829  0.83443800    -0.23100
C136        C  0.51800487  0.20770003  0.16412130    -0.23100
C137        C  0.46442630  0.20879856  0.16381293    -0.23100
C138        C  0.59070695  0.21623493  0.90436454    -0.18400
C139        C  0.58695660  0.21341147  0.09550203    -0.18400
C140        C  0.39789686  0.21477781  0.09429197    -0.18400
C141        C  0.40223790  0.21090854  0.90307310    -0.18400
H142        H  0.69011586  0.23733863  0.94995590     0.14500
H143        H  0.68836534  0.23530065  0.05187800     0.14500
H144        H  0.29870642  0.21590996  0.94626494     0.14500
H145        H  0.29639019  0.21783701  0.04836712     0.14500
H146        H  0.54990754  0.20776214  0.80076289     0.12800
H147        H  0.44699254  0.20495692  0.80009108     0.12800
H148        H  0.54211738  0.20545943  0.19847652     0.12800
H149        H  0.43912270  0.20721757  0.19787376     0.12800
H150        H  0.53568219  0.20015545  0.99939086     0.26000
H151        H  0.45461187  0.21153003  0.99917394     0.26000
C152        C  0.21128217  0.79204740  0.79147505    -0.02600
N153        N  0.00217371  0.57883455  0.79082100    -0.36700
N154        N  0.08309412  0.49941008  0.79295580    -0.57300
N155        N  0.00119375  0.41857773  0.79885772    -0.36700
N156        N  0.92047507  0.49789653  0.79059110    -0.57300
C157        C  0.04498836  0.60886716  0.78143434     0.26900
C158        C  0.96003898  0.60797208  0.77913729     0.26900
C159        C  0.04367029  0.38775726  0.79541798     0.26900
C160        C  0.95867013  0.38711973  0.79551755     0.26900
C161        C  0.11421208  0.54218623  0.79651666     0.35500
C162        C  0.11380387  0.45718201  0.79901955     0.35500
C163        C  0.88962714  0.54043564  0.79216651     0.35500
C164        C  0.88903832  0.45564674  0.79703392     0.35500
C165        C  0.02967732  0.65803185  0.76433364    -0.22000
C166        C  0.97633082  0.65743204  0.76281857    -0.22000
C167        C  0.02778060  0.33573930  0.79073342    -0.22000
C168        C  0.97443045  0.33534920  0.79084825    -0.22000
C169        C  0.16532469  0.52711166  0.80425264    -0.23100
C170        C  0.16510731  0.47314629  0.80558264    -0.23100
C171        C  0.83799981  0.52517540  0.79884807    -0.23100
C172        C  0.83761823  0.47133012  0.80181399    -0.23100
C173        C  0.09745077  0.59441905  0.79007768    -0.18400
C174        C  0.90713777  0.59265112  0.78546526    -0.18400
C175        C  0.90586143  0.40305876  0.79722723    -0.18400
C176        C  0.09652400  0.40442386  0.79744441    -0.18400
H177        H  0.05415453  0.69137831  0.75435396     0.14500
H178        H  0.95240439  0.69018950  0.75147869     0.14500
H179        H  0.05197378  0.30127905  0.78770214     0.14500
H180        H  0.95013684  0.30059709  0.78779392     0.14500
H181        H  0.19925853  0.55229729  0.80786363     0.12800
H182        H  0.19880368  0.44850133  0.81084185     0.12800
H183        H  0.80413809  0.55015924  0.80085578     0.12800
H184        H  0.80345101  0.44658425  0.80686389     0.12800
H185        H  0.00157826  0.54190532  0.80739263     0.26000
H186        H  0.00129159  0.45851235  0.80436278     0.26000
C187        C  0.20954011  0.20952638  0.79093522    -0.02600
N188        N  0.20523710  0.00133798  0.42166763    -0.36700
N189        N  0.20926125  0.08320102  0.50138954    -0.57300
N190        N  0.20901802  0.00134038  0.58083882    -0.36700
N191        N  0.21243135  0.91967004  0.50092924    -0.57300
C192        C  0.21282418  0.04443892  0.39163240     0.26900
C193        C  0.21440942  0.95901628  0.39123216     0.26900
C194        C  0.21743562  0.04426741  0.61061941     0.26900
C195        C  0.21892954  0.95889247  0.61064866     0.26900
C196        C  0.20029307  0.11372720  0.45947542     0.35500
C197        C  0.20206794  0.11368413  0.54380794     0.35500
C198        C  0.20681385  0.88839696  0.45878837     0.35500
C199        C  0.20830151  0.88846092  0.54342432     0.35500
C200        C  0.22625934  0.02922131  0.34125572    -0.22000
C201        C  0.22721401  0.97550768  0.34099581    -0.22000
C202        C  0.23240314  0.02884881  0.66022721    -0.22000
C203        C  0.23320820  0.97513894  0.66029507    -0.22000
C204        C  0.18821336  0.16423605  0.47520803    -0.23100
C205        C  0.18931969  0.16420332  0.52886787    -0.23100
C206        C  0.20026414  0.83670143  0.47449007    -0.23100
C207        C  0.20117001  0.83674425  0.52823689    -0.23100
C208        C  0.20532316  0.09712598  0.40724665    -0.18400
C209        C  0.20927934  0.90576952  0.40639839    -0.18400
C210        C  0.21284850  0.90578617  0.59558540    -0.18400
C211        C  0.20895740  0.09691402  0.59565486    -0.18400
H212        H  0.23407576  0.05411592  0.30777068     0.14500
H213        H  0.23604077  0.95141889  0.30731888     0.14500
H214        H  0.24113332  0.05359846  0.69338038     0.14500
H215        H  0.24273254  0.95094346  0.69355071     0.14500
H216        H  0.17963462  0.19756003  0.45060907     0.12800
H217        H  0.18176225  0.19748278  0.55396970     0.12800
H218        H  0.19556471  0.80257007  0.44982185     0.12800
H219        H  0.19735201  0.80263323  0.55323846     0.12800
H220        H  0.19164095  0.00081779  0.45976705     0.26000
H221        H  0.19422660  0.00091511  0.54350153     0.26000
C222        C  0.20458371  0.21313190  0.21326034    -0.02600
C223        C  0.20593186  0.79183070  0.21043622    -0.02600
N224        N  0.99370521  0.58057229  0.21875001    -0.36700
N225        N  0.91164008  0.50014540  0.22217133    -0.57300
N226        N  0.99232596  0.42103837  0.21990034    -0.36700
N227        N  0.07426541  0.50148015  0.22448476    -0.57300
C228        C  0.95128566  0.61009645  0.22865580     0.26900
C229        C  0.03600107  0.61070488  0.22884680     0.26900
C230        C  0.94957591  0.39059109  0.22814711     0.26900
C231        C  0.03444041  0.39124457  0.22973101     0.26900
C232        C  0.88153928  0.54264313  0.21512180     0.35500
C233        C  0.88068821  0.45770625  0.21513865     0.35500
C234        C  0.10539344  0.54391486  0.21747326     0.35500
C235        C  0.10477852  0.45901783  0.21859081     0.35500
C236        C  0.96691045  0.65972076  0.24486194    -0.22000
C237        C  0.02027853  0.66007375  0.24498808    -0.22000
C238        C  0.96481713  0.34072597  0.24306549    -0.22000
C239        C  0.01821754  0.34113515  0.24407501    -0.22000
C240        C  0.83076364  0.52724899  0.20470172    -0.23100
C241        C  0.83023239  0.47325419  0.20469268    -0.23100
C242        C  0.15630532  0.52848154  0.20834205    -0.23100
C243        C  0.15593737  0.47450986  0.20911711    -0.23100
C244        C  0.89891353  0.59500227  0.22025495    -0.18400
C245        C  0.08849742  0.59628893  0.22091224    -0.18400
C246        C  0.08723828  0.40656238  0.22296954    -0.18400
C247        C  0.89721920  0.40525386  0.21980329    -0.18400
H248        H  0.94251379  0.69267371  0.25500259     0.14500
H249        H  0.04470909  0.69320191  0.25535055     0.14500
H250        H  0.94008687  0.30719727  0.25184886     0.14500
H251        H  0.04233994  0.30795006  0.25374201     0.14500
H252        H  0.79759588  0.55227889  0.19811120     0.12800
H253        H  0.79660207  0.44833722  0.19802554     0.12800
H254        H  0.19010002  0.55345864  0.20199169     0.12800
H255        H  0.18943217  0.44955555  0.20339719     0.12800
H256        H  0.99377361  0.54343141  0.20251499     0.26000
H257        H  0.99294378  0.45875002  0.20506705     0.26000
C258        C  0.17988045  0.70601866  0.25768686    -0.13500
C259        C  0.17921512  0.73747643  0.21216340     0.08700
C260        C  0.15562370  0.71635813  0.16709464    -0.13500
C261        C  0.12899607  0.66849134  0.16919688    -0.13500
C262        C  0.12674394  0.63970121  0.21574258     0.08700
C263        C  0.15355405  0.65786214  0.25950507    -0.13500
H264        H  0.19978198  0.71889820  0.29247800     0.12700
H265        H  0.15642319  0.73758853  0.13045665     0.12700
H266        H  0.10826665  0.65484758  0.13508676     0.12700
H267        H  0.15195129  0.63595838  0.29576399     0.12700
C268        C  0.15013329  0.34498674  0.26339940    -0.13500
C269        C  0.12545347  0.36377041  0.21878583     0.08700
C270        C  0.13022655  0.33648287  0.17164280    -0.13500
C271        C  0.15709510  0.28924011  0.16964540    -0.13500
C272        C  0.17849691  0.26732803  0.21525668     0.08700
C273        C  0.17675097  0.29746068  0.26165333    -0.13500
H274        H  0.14665669  0.36586758  0.30007870     0.12700
H275        H  0.11121749  0.35073740  0.13687533     0.12700
H276        H  0.15969321  0.26891661  0.13262094     0.12700
H277        H  0.19489983  0.28405356  0.29712795     0.12700
C278        C  0.25307101  0.84573886  0.34329442    -0.13500
C279        C  0.20699936  0.86687391  0.36359887     0.08700
C280        C  0.16018883  0.85925567  0.33694772    -0.13500
C281        C  0.15990100  0.83337120  0.28893693    -0.13500
C282        C  0.20678586  0.81609379  0.26558495     0.08700
C283        C  0.25300385  0.82027412  0.29501760    -0.13500
H284        H  0.28954601  0.85146346  0.36351383     0.12700
H285        H  0.12430370  0.87565224  0.35214062     0.12700
H286        H  0.12322806  0.82884974  0.26880744     0.12700
H287        H  0.28953701  0.80482037  0.28064512     0.12700
C288        C  0.15746004  0.17149301  0.29128230    -0.13500
C289        C  0.20486122  0.18859000  0.26818066     0.08700
C290        C  0.25085474  0.18426760  0.29774087    -0.13500
C291        C  0.25020871  0.15823982  0.34569291    -0.13500
C292        C  0.20367786  0.13665459  0.36526320     0.08700
C293        C  0.15703478  0.14497758  0.33891372    -0.13500
H294        H  0.12093714  0.17654408  0.27113736     0.12700
H295        H  0.28769966  0.19984772  0.28361526     0.12700
H296        H  0.28645941  0.15221395  0.36608023     0.12700
H297        H  0.12078883  0.12855796  0.35390768     0.12700
C298        C  0.16083394  0.14154272  0.66688332    -0.13500
C299        C  0.20696920  0.13587925  0.63803082     0.08700
C300        C  0.25309781  0.15913212  0.65558459    -0.13500
C301        C  0.25407970  0.18411037  0.70397351    -0.13500
C302        C  0.20879685  0.18596181  0.73579898     0.08700
C303        C  0.16147845  0.16726743  0.71481017    -0.13500
H304        H  0.12493213  0.12366058  0.65351493     0.12700
H305        H  0.28895249  0.15506224  0.63331379     0.12700
H306        H  0.29071658  0.20071865  0.71670572     0.12700
H307        H  0.12530221  0.17041174  0.73668325     0.12700
C308        C  0.14800319  0.33623643  0.84259870    -0.13500
C309        C  0.13574770  0.36247397  0.79640416     0.08700
C310        C  0.15180540  0.34196481  0.74828149    -0.13500
C311        C  0.17661244  0.29358799  0.74597227    -0.13500
C312        C  0.18566883  0.26459145  0.79200279     0.08700
C313        C  0.17339953  0.28815204  0.84049186    -0.13500
H314        H  0.13533650  0.35159799  0.88001649     0.12700
H315        H  0.14222025  0.36193775  0.71231251     0.12700
H316        H  0.18742414  0.27879600  0.70785916     0.12700
H317        H  0.18157135  0.26810973  0.87678307     0.12700
C318        C  0.25849060  0.82269879  0.70685745    -0.13500
C319        C  0.21196696  0.81634925  0.73636588     0.08700
C320        C  0.16467173  0.83134845  0.71309256    -0.13500
C321        C  0.16458501  0.85705386  0.66498706    -0.13500
C322        C  0.21151337  0.86684117  0.63830828     0.08700
C323        C  0.25818743  0.84795392  0.65849412    -0.13500
H324        H  0.29552267  0.80924529  0.72125088     0.12700
H325        H  0.12785099  0.82499924  0.73326086     0.12700
H326        H  0.12823221  0.87166295  0.64977407     0.12700
H327        H  0.29472502  0.85548193  0.63817572     0.12700
C328        C  0.17300207  0.71141203  0.83809508    -0.13500
C329        C  0.18762947  0.73617478  0.79068669     0.08700
C330        C  0.18035757  0.70784120  0.74378797    -0.13500
C331        C  0.15498553  0.65917930  0.74405925    -0.13500
C332        C  0.13643244  0.63756128  0.79100195     0.08700
C333        C  0.14720701  0.66293803  0.83816128    -0.13500
H334        H  0.17974501  0.73074732  0.87508715     0.12700
H335        H  0.19296772  0.72340622  0.70641942     0.12700
H336        H  0.14688700  0.63987560  0.70732110     0.12700
H337        H  0.13318493  0.64653396  0.87478442     0.12700
C338        C  0.33047104  0.26327841  0.14492837    -0.13500
C339        C  0.35529189  0.21588914  0.13359458     0.08700
C340        C  0.33425689  0.16880605  0.15271139    -0.13500
C341        C  0.28696900  0.16875509  0.18003815    -0.13500
C342        C  0.25949401  0.21583698  0.18868531     0.08700
C343        C  0.28330486  0.26343836  0.17256180    -0.13500
H344        H  0.34635373  0.29991050  0.13002443     0.12700
H345        H  0.35302505  0.13188792  0.14399560     0.12700
H346        H  0.27056017  0.13155714  0.19282244     0.12700
H347        H  0.26510842  0.30092321  0.17936430     0.12700
C348        C  0.28838205  0.16194891  0.82689270    -0.13500
C349        C  0.26486619  0.20979716  0.81292578     0.08700
C350        C  0.29395003  0.25664112  0.81893658    -0.13500
C351        C  0.34171515  0.25621571  0.84411274    -0.13500
C352        C  0.36144251  0.20914348  0.86322018     0.08700
C353        C  0.33589748  0.16173022  0.85266297    -0.13500
H354        H  0.26845556  0.12492810  0.82047733     0.12700
H355        H  0.27943149  0.29404045  0.80579756     0.12700
H356        H  0.36165553  0.29298574  0.85178743     0.12700
H357        H  0.35111163  0.12507418  0.86726192     0.12700
C358        C  0.82860398  0.28604041  0.16704663    -0.13500
C359        C  0.80570943  0.26429601  0.21272719     0.08700
C360        C  0.80560099  0.29528008  0.25850747    -0.13500
C361        C  0.83198674  0.34349751  0.25981139    -0.13500
C362        C  0.85859501  0.36201594  0.21540485     0.08700
C363        C  0.85558214  0.33375366  0.16870016    -0.13500
H364        H  0.82730302  0.26515542  0.13028462     0.12700
H365        H  0.78607064  0.28198359  0.29379672     0.12700
H366        H  0.83392741  0.36508519  0.29615796     0.12700
H367        H  0.87600806  0.34763829  0.13405191     0.12700
C368        C  0.69854873  0.16477740  0.17468440    -0.13500
C369        C  0.72504540  0.21203443  0.18649699     0.08700
C370        C  0.69980986  0.25985714  0.17557210    -0.13500
C371        C  0.65194505  0.26016646  0.15019848    -0.13500
C372        C  0.62839658  0.21294303  0.13506212     0.08700
C373        C  0.65098774  0.16526794  0.14887187    -0.13500
H374        H  0.71581703  0.12729913  0.18386629     0.12700
H375        H  0.71715508  0.29732991  0.18525761     0.12700
H376        H  0.63488687  0.29727857  0.13927566     0.12700
H377        H  0.63321916  0.12850817  0.13708270     0.12700
C378        C  0.72894131  0.15113239  0.34221951    -0.13500
C379        C  0.77505325  0.13121078  0.36287101     0.08700
C380        C  0.82248385  0.14127401  0.33720332    -0.13500
C381        C  0.82364213  0.16858410  0.28994488    -0.13500
C382        C  0.77709713  0.18485589  0.26614484     0.08700
C383        C  0.72987168  0.17789617  0.29449731    -0.13500
H384        H  0.69199117  0.14372999  0.36180672     0.12400
H385        H  0.85843604  0.12606558  0.35276501     0.12700
H386        H  0.86089798  0.17498333  0.27062459     0.12700
H387        H  0.69327858  0.19210409  0.27971521     0.12700
C388        C  0.82206029  0.29373670  0.74621355    -0.13500
C389        C  0.81286316  0.26378489  0.79186511     0.08700
C390        C  0.82696778  0.28595658  0.84038995    -0.13500
C391        C  0.85407956  0.33349870  0.84262207    -0.13500
C392        C  0.86625459  0.36072580  0.79660631     0.08700
C393        C  0.84861502  0.34162771  0.74867678    -0.13500
H394        H  0.80967388  0.28012491  0.70830328     0.12700
H395        H  0.81852757  0.26541496  0.87658664     0.12700
H396        H  0.86774101  0.34783392  0.87991129     0.12700
H397        H  0.85790624  0.36249992  0.71285808     0.12700
C398        C  0.70322825  0.16570178  0.82548377    -0.13500
C399        C  0.73022203  0.21257209  0.81292411     0.08700
C400        C  0.70461580  0.26072530  0.82202383    -0.13500
C401        C  0.65676395  0.26186532  0.84831285    -0.13500
C402        C  0.63335046  0.21508531  0.86534356     0.08700
C403        C  0.65562119  0.16700625  0.85205941    -0.13500
H404        H  0.72047114  0.12796483  0.81709218     0.12700
H405        H  0.72190212  0.29784880  0.81053889     0.12700
H406        H  0.63947861  0.29926828  0.85807529     0.12700
H407        H  0.63751142  0.13059011  0.86480883     0.12700
C408        C  0.83429652  0.16867108  0.71298362    -0.13500
C409        C  0.78677716  0.18603505  0.73504272     0.08700
C410        C  0.74140478  0.18160666  0.70441488    -0.13500
C411        C  0.74272710  0.15605881  0.65615818    -0.13500
C412        C  0.78926192  0.13464610  0.63722642     0.08700
C413        C  0.83533604  0.14245461  0.66509815    -0.13500
H414        H  0.87037923  0.17320868  0.73413979     0.12700
H415        H  0.70438086  0.19662108  0.71795265     0.12700
H416        H  0.70679599  0.15013866  0.63504199     0.12700
H417        H  0.87157282  0.12582079  0.65107686     0.12700
C418        C  0.33223333  0.74246626  0.14399163    -0.13500
C419        C  0.35843412  0.78994018  0.13455125     0.08700
C420        C  0.33739989  0.83684641  0.15304269    -0.13500
C421        C  0.28901005  0.83667181  0.17816305    -0.13500
C422        C  0.26074305  0.78944866  0.18590000     0.08700
C423        C  0.28408740  0.74202061  0.16981187    -0.13500
H424        H  0.34790045  0.70605395  0.12902752     0.12700
H425        H  0.35696540  0.87385983  0.14510274     0.12700
H426        H  0.27270438  0.87376615  0.19048973     0.12700
H427        H  0.26495584  0.70448772  0.17543305     0.12700
C428        C  0.34143087  0.74965559  0.85249916    -0.13500
C429        C  0.36309237  0.79820975  0.86604360     0.08700
C430        C  0.33832370  0.84446851  0.85103624    -0.13500
C431        C  0.29032365  0.84198538  0.82594597    -0.13500
C432        C  0.26600374  0.79316409  0.81552445     0.08700
C433        C  0.29372358  0.74701941  0.82708283    -0.13500
H434        H  0.36023742  0.71365234  0.86413781     0.12700
H435        H  0.35451531  0.88229240  0.86170887     0.12700
H436        H  0.27108705  0.87830553  0.81615821     0.12700
H437        H  0.27845538  0.70854068  0.81786762     0.12700
C438        C  0.73635727  0.84253732  0.34591433    -0.13500
C439        C  0.78298739  0.86324449  0.36528672     0.08700
C440        C  0.82960183  0.85537666  0.33776441    -0.13500
C441        C  0.82910030  0.83011043  0.28950551    -0.13500
C442        C  0.78167790  0.81356108  0.26698321     0.08700
C443        C  0.73558315  0.81796940  0.29725185    -0.13500
H444        H  0.70006442  0.84844523  0.36698607     0.12700
H445        H  0.86594064  0.87116845  0.35241373     0.12700
H446        H  0.86567472  0.82513309  0.26867701     0.12700
H447        H  0.69861256  0.80320023  0.28342474     0.12700
C448        C  0.83839421  0.65795217  0.26235518    -0.13500
C449        C  0.86092063  0.63783044  0.21678358     0.08700
C450        C  0.85504197  0.66429492  0.16935948    -0.13500
C451        C  0.82889826  0.71197063  0.16790629    -0.13500
C452        C  0.80934243  0.73491996  0.21424719     0.08700
C453        C  0.81260717  0.70580467  0.26115842    -0.13500
H454        H  0.84307001  0.63784014  0.29928259     0.12700
H455        H  0.87259663  0.64905330  0.13389655     0.12700
H456        H  0.82510325  0.73167320  0.13067010     0.12700
H457        H  0.79596362  0.71999288  0.29738763     0.12700
C458        C  0.70405221  0.73523505  0.17634347    -0.13500
C459        C  0.72744287  0.78398638  0.18900625     0.08700
C460        C  0.69918565  0.83010532  0.17874324    -0.13500
C461        C  0.65149311  0.82783686  0.15316920    -0.13500
C462        C  0.63101956  0.77948190  0.13717687     0.08700
C463        C  0.65668009  0.73318589  0.15016428    -0.13500
H464        H  0.72265235  0.69837180  0.18483833     0.12700
H465        H  0.71519435  0.86815637  0.18889043     0.12700
H466        H  0.63222419  0.86396379  0.14276708     0.12700
H467        H  0.64134213  0.69560586  0.13757582     0.12700
C468        C  0.70606301  0.82814827  0.82740446    -0.13500
C469        C  0.73185301  0.78119977  0.81419014     0.08700
C470        C  0.70562289  0.73312187  0.82414408    -0.13500
C471        C  0.65797230  0.73216902  0.85096852    -0.13500
C472        C  0.63496130  0.77906368  0.86703658     0.08700
C473        C  0.65818857  0.82705157  0.85348955    -0.13500
H474        H  0.72407036  0.86584156  0.81901961     0.12700
H475        H  0.72213962  0.69594828  0.81270160     0.12700
H476        H  0.64019553  0.69483727  0.86130047     0.12700
H477        H  0.64080526  0.86355821  0.86608065     0.12700
C478        C  0.73976333  0.81848753  0.70731792    -0.13500
C479        C  0.78622101  0.81014061  0.73528524     0.08700
C480        C  0.83385720  0.82542849  0.71139421    -0.13500
C481        C  0.83470199  0.85231039  0.66392927    -0.13500
C482        C  0.78809594  0.86374396  0.63871789     0.08700
C483        C  0.74078021  0.84536964  0.65975570    -0.13500
H484        H  0.70230579  0.80537569  0.72224296     0.12700
H485        H  0.87049489  0.81802302  0.73057493     0.12700
H486        H  0.87151012  0.86649426  0.64811036     0.12700
H487        H  0.70442712  0.85421502  0.64062702     0.12700
C488        C  0.82729790  0.70529438  0.83457546    -0.13500
C489        C  0.81275820  0.73003331  0.78759855     0.08700
C490        C  0.82254874  0.70333301  0.74011281    -0.13500
C491        C  0.85037184  0.65651423  0.73953797    -0.13500
C492        C  0.86833411  0.63508529  0.78625965     0.08700
C493        C  0.85522431  0.65864839  0.83382522    -0.13500
H494        H  0.81865482  0.72330251  0.87193048     0.12700
H495        H  0.80992276  0.71880299  0.70305290     0.12700
H496        H  0.86010109  0.63831136  0.70253089     0.12700
H497        H  0.86867735  0.64212655  0.87022999     0.12700
C498        C  0.84622505  0.84595581  0.85163346    -0.13400
C499        C  0.81912840  0.81850936  0.82424572    -0.14900
C500        C  0.84290488  0.14728275  0.85308400    -0.13400
C501        C  0.81619968  0.17414980  0.82517839    -0.14900
C502        C  0.14866118  0.85200680  0.85195627    -0.13400
C503        C  0.17725317  0.82528323  0.82533579    -0.14900
C504        C  0.81345458  0.82388380  0.17739675    -0.13400
C505        C  0.84094710  0.85140425  0.15002514    -0.14900
C506        C  0.14792581  0.85399652  0.14890255    -0.13400
C507        C  0.17492154  0.82710875  0.17640373    -0.14900
C508        C  0.84098194  0.14806964  0.15103030    -0.13400
C509        C  0.81215945  0.17477768  0.17748659    -0.14900
C510        C  0.14887974  0.14838016  0.85279282    -0.13400
C511        C  0.17685619  0.17543318  0.82559623    -0.14900
C512        C  0.14633765  0.15063689  0.15111551    -0.13400
C513        C  0.17307462  0.17791263  0.17899057    -0.14900
loop_ 
_geom_bond_atom_site_label_1 
_geom_bond_atom_site_label_2 
_geom_bond_distance 
_geom_bond_site_symmetry_2 
_ccdc_geom_bond_type 
N1            N2   1.322       .  A
N1            N7   1.317       .  A
N1          Mn30   2.210   1_455  S
N2            C9   1.352       .  A
N3            N5   1.318       .  A
N3            N4   1.321       .  A
N3          Mn19   2.207   1_565  S
N4           C10   1.351       .  A
N5            N6   1.321       .  A
N5          Mn30   2.209       .  S
N6           C10   1.351       .  A
N7            N8   1.321       .  A
N7          Mn19   2.206   1_465  S
N8            C9   1.350       .  A
C9          C506   1.440       .  S
C10         C505   1.439       .  S
N11          N17   1.317       .  A
N11          N12   1.323       .  A
N11         Mn41   2.212       .  S
N12          C20   1.352       .  A
N13          N14   1.322       .  A
N13          N15   1.317       .  A
N13         Mn19   2.206   1_455  S
N14          C21   1.351       .  A
N15          N16   1.323       .  A
N15         Mn41   2.220   1_455  S
N16          C21   1.354       .  A
N17          N18   1.323       .  A
N17         Mn19   2.213       .  S
N18          C20   1.352       .  A
Mn19        Cl43   2.551       .  S
C20         C508   1.444       .  S
C21         C512   1.443       .  S
N22          N23   1.323       .  A
N22          N28   1.317       .  A
N22         Mn30   2.213   1_556  S
N23          C31   1.352       .  A
N24          N26   1.317       .  A
N24          N25   1.323       .  A
N24         Mn42   2.213   1_455  S
N25          C32   1.352       .  A
N26          N27   1.322       .  A
N26         Mn30   2.209   1_456  S
N27          C32   1.352       .  A
N28          N29   1.323       .  A
N28         Mn42   2.212       .  S
N29          C31   1.352       .  A
Mn30        Cl43   2.554   1_565  S
C31         C498   1.444       .  S
C32         C502   1.443       .  S
N33          N34   1.321       .  A
N33          N39   1.318       .  A
N33         Mn41   2.205   1_456  S
N34          C44   1.350       .  A
N35          N36   1.322       .  A
N35          N37   1.319       .  A
N35         Mn42   2.211   1_545  S
N36          C45   1.351       .  A
N37          N38   1.323       .  A
N37         Mn41   2.219   1_556  S
N38          C45   1.353       .  A
N39          N40   1.321       .  A
N39         Mn42   2.205   1_445  S
N40          C44   1.351       .  A
Mn41        Cl43   2.554       .  S
Mn42        Cl43   2.551   1_566  S
C44         C510   1.435       .  S
C45         C500   1.443       .  S
C46         C469   1.539       .  S
C46         C479   1.541       .  S
C46         C489   1.541       .  S
C46         C499   1.495       .  S
C47         C442   1.538       .  S
C47         C452   1.538       .  S
C47         C459   1.539       .  S
C47         C504   1.491       .  S
N48          C53   1.354       .  A
N48          C52   1.353   1_554  A
N48          H80   1.031       .  S
N49          C56   1.348       .  A
N49          C57   1.350       .  A
N50          C55   1.351       .  A
N50          C54   1.352   1_554  A
N50          H81   1.026       .  S
N51          C58   1.348       .  A
N51          C59   1.349       .  A
C52          C60   1.388       .  A
C52          C68   1.418       .  A
C53          C69   1.419       .  A
C53          C61   1.388       .  A
C54          C62   1.389       .  A
C54          C71   1.419       .  A
C55          C70   1.419       .  A
C55          C63   1.389       .  A
C56          C68   1.411       .  A
C56          C64   1.386       .  A
C57          C71   1.414       .  A
C57          C65   1.386       .  A
C58          C66   1.386       .  A
C58          C69   1.411       .  A
C59          C67   1.387       .  A
C59          C70   1.413       .  A
C60          C61   1.367   1_556  A
C60          H72   1.082       .  S
C61          H73   1.082       .  S
C62          C63   1.368   1_556  A
C62          H74   1.082       .  S
C63          H75   1.082       .  S
C64          C65   1.375       .  A
C64          H76   1.082       .  S
C65          H77   1.082       .  S
C66          C67   1.375       .  A
C66          H78   1.082       .  S
C67          H79   1.082       .  S
C68         C472   1.476       .  S
C69         C462   1.477       .  S
C70         C419   1.475       .  S
C71         C429   1.478       .  S
C82         C389   1.538       .  S
C82         C399   1.538       .  S
C82         C409   1.543       .  S
C82         C501   1.495       .  S
N83          C88   1.353   1_565  A
N83          C87   1.354       .  A
N83         H115   1.033       .  S
N84          C91   1.349       .  A
N84          C92   1.349       .  A
N85          C90   1.353   1_565  A
N85          C89   1.352       .  A
N85         H116   1.035       .  S
N86          C93   1.351       .  A
N86          C94   1.351       .  A
C87          C95   1.388       .  A
C87         C103   1.418       .  A
C88         C104   1.418       .  A
C88          C96   1.388       .  A
C89          C97   1.389       .  A
C89         C106   1.415       .  A
C90         C105   1.414       .  A
C90          C98   1.387       .  A
C91         C103   1.411       .  A
C91          C99   1.386       .  A
C92         C106   1.410       .  A
C92         C100   1.386       .  A
C93         C101   1.386       .  A
C93         C104   1.413       .  A
C94         C102   1.386       .  A
C94         C105   1.412       .  A
C95          C96   1.370   1_565  A
C95         H107   1.082       .  S
C96         H108   1.082       .  S
C97          C98   1.370   1_565  A
C97         H109   1.081       .  S
C98         H110   1.082       .  S
C99         C100   1.377       .  A
C99         H111   1.082       .  S
C100        H112   1.082       .  S
C101        C102   1.377       .  A
C101        H113   1.082       .  S
C102        H114   1.082       .  S
C103        C482   1.478       .  S
C104        C412   1.482       .  S
C105        C379   1.481       .  S
C106        C439   1.476       .  S
C117        C359   1.544       .  S
C117        C369   1.538       .  S
C117        C382   1.543       .  S
C117        C509   1.496       .  S
N118        C123   1.352   1_556  A
N118        C122   1.353       .  A
N118        H150   1.029       .  S
N119        C126   1.347       .  A
N119        C127   1.347       .  A
N120        C125   1.352   1_556  A
N120        C124   1.350       .  A
N120        H151   1.025       .  S
N121        C128   1.349       .  A
N121        C129   1.350       .  A
C122        C130   1.387       .  A
C122        C138   1.418       .  A
C123        C139   1.420       .  A
C123        C131   1.389       .  A
C124        C132   1.390       .  A
C124        C141   1.420       .  A
C125        C140   1.421       .  A
C125        C133   1.389       .  A
C126        C138   1.409       .  A
C126        C134   1.386       .  A
C127        C141   1.411       .  A
C127        C135   1.387       .  A
C128        C136   1.386       .  A
C128        C139   1.414       .  A
C129        C137   1.387       .  A
C129        C140   1.415       .  A
C130        C131   1.369   1_556  A
C130        H142   1.082       .  S
C131        H143   1.082       .  S
C132        C133   1.370   1_556  A
C132        H144   1.082       .  S
C133        H145   1.082       .  S
C134        C135   1.373       .  A
C134        H146   1.082       .  S
C135        H147   1.082       .  S
C136        C137   1.375       .  A
C136        H148   1.082       .  S
C137        H149   1.082       .  S
C138        C402   1.475       .  S
C139        C372   1.476       .  S
C140        C339   1.479       .  S
C141        C352   1.470       .  S
C152        C319   1.540       .  S
C152        C329   1.544       .  S
C152        C432   1.539       .  S
C152        C503   1.493       .  S
N153        C158   1.353   1_455  A
N153        C157   1.353       .  A
N153        H185   1.032       .  S
N154        C161   1.350       .  A
N154        C162   1.349       .  A
N155        C160   1.352   1_455  A
N155        C159   1.351       .  A
N155        H186   1.028       .  S
N156        C163   1.348       .  A
N156        C164   1.349       .  A
C157        C165   1.388       .  A
C157        C173   1.418       .  A
C158        C174   1.417       .  A
C158        C166   1.388       .  A
C159        C167   1.390       .  A
C159        C176   1.419       .  A
C160        C175   1.418       .  A
C160        C168   1.388       .  A
C161        C173   1.413       .  A
C161        C169   1.386       .  A
C162        C176   1.413       .  A
C162        C170   1.387       .  A
C163        C171   1.386       .  A
C163        C174   1.411       .  A
C164        C172   1.386       .  A
C164        C175   1.412       .  A
C165        C166   1.370   1_455  A
C165        H177   1.082       .  S
C166        H178   1.082       .  S
C167        C168   1.369   1_455  A
C167        H179   1.082       .  S
C168        H180   1.082       .  S
C169        C170   1.376       .  A
C169        H181   1.082       .  S
C170        H182   1.082       .  S
C171        C172   1.375       .  A
C171        H183   1.082       .  S
C172        H184   1.082       .  S
C173        C332   1.481       .  S
C174        C492   1.476       .  S
C175        C392   1.476       .  S
C176        C309   1.475       .  S
C187        C302   1.535       .  S
C187        C312   1.536       .  S
C187        C349   1.533       .  S
C187        C511   1.489       .  S
N188        C193   1.352   1_545  A
N188        C192   1.352       .  A
N188        H220   1.033       .  S
N189        C196   1.348       .  A
N189        C197   1.348       .  A
N190        C195   1.351   1_545  A
N190        C194   1.352       .  A
N190        H221   1.032       .  S
N191        C198   1.350       .  A
N191        C199   1.350       .  A
C192        C200   1.388       .  A
C192        C208   1.416       .  A
C193        C209   1.416       .  A
C193        C201   1.388       .  A
C194        C202   1.388       .  A
C194        C211   1.414       .  A
C195        C210   1.416       .  A
C195        C203   1.389       .  A
C196        C208   1.408       .  A
C196        C204   1.386       .  A
C197        C211   1.407       .  A
C197        C205   1.386       .  A
C198        C206   1.386       .  A
C198        C209   1.413       .  A
C199        C207   1.386       .  A
C199        C210   1.413       .  A
C200        C201   1.370   1_545  A
C200        H212   1.082       .  S
C201        H213   1.082       .  S
C202        C203   1.370   1_545  A
C202        H214   1.082       .  S
C203        H215   1.082       .  S
C204        C205   1.374       .  A
C204        H216   1.082       .  S
C205        H217   1.082       .  S
C206        C207   1.377       .  A
C206        H218   1.082       .  S
C207        H219   1.082       .  S
C208        C292   1.474       .  S
C209        C279   1.480       .  S
C210        C322   1.476       .  S
C211        C299   1.473       .  S
C222        C272   1.541       .  S
C222        C289   1.539       .  S
C222        C342   1.538       .  S
C222        C513   1.495       .  S
C223        C259   1.541       .  S
C223        C282   1.542       .  S
C223        C422   1.536       .  S
C223        C507   1.492       .  S
N224        C229   1.352   1_655  A
N224        C228   1.351       .  A
N224        H256   1.034       .  S
N225        C232   1.349       .  A
N225        C233   1.350       .  A
N226        C231   1.352   1_655  A
N226        C230   1.353       .  A
N226        H257   1.033       .  S
N227        C234   1.350       .  A
N227        C235   1.349       .  A
C228        C236   1.389       .  A
C228        C244   1.413       .  A
C229        C245   1.412       .  A
C229        C237   1.387       .  A
C230        C238   1.387       .  A
C230        C247   1.416       .  A
C231        C246   1.416       .  A
C231        C239   1.388       .  A
C232        C244   1.410       .  A
C232        C240   1.386       .  A
C233        C247   1.411       .  A
C233        C241   1.386       .  A
C234        C242   1.385       .  A
C234        C245   1.410       .  A
C235        C243   1.387       .  A
C235        C246   1.411       .  A
C236        C237   1.369   1_655  A
C236        H248   1.082       .  S
C237        H249   1.082       .  S
C238        C239   1.371   1_655  A
C238        H250   1.082       .  S
C239        H251   1.082       .  S
C240        C241   1.376       .  A
C240        H252   1.082       .  S
C241        H253   1.082       .  S
C242        C243   1.376       .  A
C242        H254   1.082       .  S
C243        H255   1.082       .  S
C244        C449   1.473       .  S
C245        C262   1.478       .  S
C246        C269   1.476       .  S
C247        C362   1.481       .  S
C258        C259   1.414       .  A
C258        C263   1.397       .  A
C258        H264   1.081       .  S
C259        C260   1.414       .  A
C260        C261   1.394       .  A
C260        H265   1.082       .  S
C261        C262   1.399       .  A
C261        H266   1.083       .  S
C262        C263   1.398       .  A
C263        H267   1.083       .  S
C268        C269   1.398       .  A
C268        C273   1.396       .  A
C268        H274   1.083       .  S
C269        C270   1.399       .  A
C270        C271   1.393       .  A
C270        H275   1.083       .  S
C271        C272   1.412       .  A
C271        H276   1.082       .  S
C272        C273   1.416       .  A
C273        H277   1.081       .  S
C278        C279   1.399       .  A
C278        C283   1.397       .  A
C278        H284   1.083       .  S
C279        C280   1.400       .  A
C280        C281   1.396       .  A
C280        H285   1.083       .  S
C281        C282   1.412       .  A
C281        H286   1.083       .  S
C282        C283   1.415       .  A
C283        H287   1.081       .  S
C288        C289   1.413       .  A
C288        C293   1.394       .  A
C288        H294   1.083       .  S
C289        C290   1.414       .  A
C290        C291   1.395       .  A
C290        H295   1.081       .  S
C291        C292   1.398       .  A
C291        H296   1.083       .  S
C292        C293   1.398       .  A
C293        H297   1.083       .  S
C298        C299   1.398       .  A
C298        C303   1.392       .  A
C298        H304   1.083       .  S
C299        C300   1.398       .  A
C300        C301   1.394       .  A
C300        H305   1.083       .  S
C301        C302   1.413       .  A
C301        H306   1.081       .  S
C302        C303   1.412       .  A
C303        H307   1.083       .  S
C308        C309   1.398       .  A
C308        C313   1.394       .  A
C308        H314   1.083       .  S
C309        C310   1.398       .  A
C310        C311   1.394       .  A
C310        H315   1.083       .  S
C311        C312   1.413       .  A
C311        H316   1.081       .  S
C312        C313   1.413       .  A
C313        H317   1.083       .  S
C318        C319   1.414       .  A
C318        C323   1.395       .  A
C318        H324   1.081       .  S
C319        C320   1.413       .  A
C320        C321   1.395       .  A
C320        H325   1.083       .  S
C321        C322   1.399       .  A
C321        H326   1.083       .  S
C322        C323   1.398       .  A
C323        H327   1.083       .  S
C328        C329   1.413       .  A
C328        C333   1.397       .  A
C328        H334   1.083       .  S
C329        C330   1.415       .  A
C330        C331   1.396       .  A
C330        H335   1.081       .  S
C331        C332   1.399       .  A
C331        H336   1.083       .  S
C332        C333   1.399       .  A
C333        H337   1.083       .  S
C338        C339   1.400       .  A
C338        C343   1.396       .  A
C338        H344   1.083       .  S
C339        C340   1.398       .  A
C340        C341   1.394       .  A
C340        H345   1.083       .  S
C341        C342   1.414       .  A
C341        H346   1.083       .  S
C342        C343   1.413       .  A
C343        H347   1.081       .  S
C348        C349   1.413       .  A
C348        C353   1.392       .  A
C348        H354   1.083       .  S
C349        C350   1.412       .  A
C350        C351   1.391       .  A
C350        H355   1.081       .  S
C351        C352   1.396       .  A
C351        H356   1.083       .  S
C352        C353   1.398       .  A
C353        H357   1.083       .  S
C358        C359   1.414       .  A
C358        C363   1.395       .  A
C358        H364   1.083       .  S
C359        C360   1.414       .  A
C360        C361   1.399       .  A
C360        H365   1.081       .  S
C361        C362   1.400       .  A
C361        H366   1.083       .  S
C362        C363   1.399       .  A
C363        H367   1.083       .  S
C368        C369   1.413       .  A
C368        C373   1.394       .  A
C368        H374   1.083       .  S
C369        C370   1.414       .  A
C370        C371   1.395       .  A
C370        H375   1.081       .  S
C371        C372   1.399       .  A
C371        H376   1.083       .  S
C372        C373   1.398       .  A
C373        H377   1.083       .  S
C378        C379   1.400       .  A
C378        C383   1.399       .  A
C378        H384   1.083       .  S
C379        C380   1.399       .  A
C380        C381   1.395       .  A
C380        H385   1.083       .  S
C381        C382   1.412       .  A
C381        H386   1.083       .  S
C382        C383   1.416       .  A
C383        H387   1.081       .  S
C388        C389   1.412       .  A
C388        C393   1.395       .  A
C388        H394   1.081       .  S
C389        C390   1.415       .  A
C390        C391   1.394       .  A
C390        H395   1.083       .  S
C391        C392   1.398       .  A
C391        H396   1.083       .  S
C392        C393   1.399       .  A
C393        H397   1.083       .  S
C398        C399   1.411       .  A
C398        C403   1.393       .  A
C398        H404   1.083       .  S
C399        C400   1.416       .  A
C400        C401   1.395       .  A
C400        H405   1.081       .  S
C401        C402   1.398       .  A
C401        H406   1.083       .  S
C402        C403   1.397       .  A
C403        H407   1.083       .  S
C408        C409   1.413       .  A
C408        C413   1.397       .  A
C408        H414   1.083       .  S
C409        C410   1.414       .  A
C410        C411   1.398       .  A
C410        H415   1.081       .  S
C411        C412   1.399       .  A
C411        H416   1.083       .  S
C412        C413   1.400       .  A
C413        H417   1.083       .  S
C418        C419   1.399       .  A
C418        C423   1.395       .  A
C418        H424   1.083       .  S
C419        C420   1.397       .  A
C420        C421   1.392       .  A
C420        H425   1.083       .  S
C421        C422   1.413       .  A
C421        H426   1.083       .  S
C422        C423   1.414       .  A
C423        H427   1.081       .  S
C428        C429   1.398       .  A
C428        C433   1.393       .  A
C428        H434   1.083       .  S
C429        C430   1.400       .  A
C430        C431   1.396       .  A
C430        H435   1.083       .  S
C431        C432   1.415       .  A
C431        H436   1.083       .  S
C432        C433   1.412       .  A
C433        H437   1.080       .  S
C438        C439   1.400       .  A
C438        C443   1.395       .  A
C438        H444   1.083       .  S
C439        C440   1.398       .  A
C440        C441   1.394       .  A
C440        H445   1.083       .  S
C441        C442   1.413       .  A
C441        H446   1.083       .  S
C442        C443   1.413       .  A
C443        H447   1.081       .  S
C448        C449   1.397       .  A
C448        C453   1.393       .  A
C448        H454   1.083       .  S
C449        C450   1.399       .  A
C450        C451   1.394       .  A
C450        H455   1.083       .  S
C451        C452   1.413       .  A
C451        H456   1.083       .  S
C452        C453   1.415       .  A
C453        H457   1.081       .  S
C458        C459   1.415       .  A
C458        C463   1.395       .  A
C458        H464   1.080       .  S
C459        C460   1.412       .  A
C460        C461   1.395       .  A
C460        H465   1.083       .  S
C461        C462   1.399       .  A
C461        H466   1.083       .  S
C462        C463   1.398       .  A
C463        H467   1.083       .  S
C468        C469   1.412       .  A
C468        C473   1.392       .  A
C468        H474   1.083       .  S
C469        C470   1.415       .  A
C470        C471   1.396       .  A
C470        H475   1.081       .  S
C471        C472   1.398       .  A
C471        H476   1.083       .  S
C472        C473   1.398       .  A
C473        H477   1.083       .  S
C478        C479   1.414       .  A
C478        C483   1.397       .  A
C478        H484   1.081       .  S
C479        C480   1.413       .  A
C480        C481   1.394       .  A
C480        H485   1.083       .  S
C481        C482   1.398       .  A
C481        H486   1.083       .  S
C482        C483   1.400       .  A
C483        H487   1.083       .  S
C488        C489   1.412       .  A
C488        C493   1.393       .  A
C488        H494   1.083       .  S
C489        C490   1.415       .  A
C490        C491   1.396       .  A
C490        H495   1.081       .  S
C491        C492   1.399       .  A
C491        H496   1.083       .  S
C492        C493   1.398       .  A
C493        H497   1.083       .  S
C498        C499   1.211       .  T
C500        C501   1.211       .  T
C502        C503   1.211       .  T
C504        C505   1.209       .  T
C506        C507   1.209       .  T
C508        C509   1.212       .  T
C510        C511   1.207       .  T
C512        C513   1.211       .  T
