geometry optimzed in LAMMPS
_audit_creation_date              2020-12-01 
_audit_creation_method            'lammps2cif' 
_symmetry_space_group_name_H-M    'P1' 
_symmetry_Int_Tables_number       1 
_symmetry_cell_setting            triclinic 
loop_ 
_symmetry_equiv_pos_as_xyz 
  x,y,z 
_cell_length_a                    107.2759773 
_cell_length_b                    107.52555325227753 
_cell_length_c                    27.862573941003436 
_cell_angle_alpha                 90.08439169989363 
_cell_angle_beta                  89.89666511809072 
_cell_angle_gamma                 120.0067936835994 
loop_ 
_atom_site_label 
_atom_site_type_symbol 
_atom_site_fract_x 
_atom_site_fract_y 
_atom_site_fract_z 
_atom_site_charge 
In1        In  0.25703768  0.88821178  0.56861613     1.36900
C2          C  0.24991910  0.89426423  0.65415739     0.78300
O3          O  0.23408220  0.87103199  0.56898479    -0.60100
O4          O  0.24946433  0.86451240  0.55795039    -0.51100
C5          C  0.25527492  0.89877415  0.48307030     0.71000
O6          O  0.25530120  0.90447005  0.52262718    -0.45900
C7          C  0.28524651  0.89920465  0.58389256     0.75700
O8          O  0.24571604  0.89682839  0.61507702    -0.57800
O9          O  0.27667373  0.88587168  0.57974731    -0.47900
O10         O  0.25766832  0.88859735  0.64920362    -0.54200
C11         C  0.23628190  0.86078449  0.56088794     0.85900
O12         O  0.25665310  0.88784527  0.48744422    -0.56100
O13         O  0.27942075  0.90673011  0.57671491    -0.59400
In14       In  0.41474695  0.96572975  0.73947492     1.36900
C15         C  0.42329167  0.98061676  0.65824063     0.78300
O16         O  0.43713870  0.97120291  0.75853105    -0.60100
O17         O  0.42288688  0.94975705  0.73782895    -0.51100
C18         C  0.41465531  0.97662052  0.82550693     0.71000
O19         O  0.42210183  0.98417732  0.79076004    -0.45900
C20         C  0.38730356  0.94980624  0.71174594     0.75700
O21         O  0.42077295  0.98543764  0.69604504    -0.57800
O22         O  0.39404603  0.94422077  0.73087010    -0.47900
O23         O  0.42193192  0.96832930  0.66303563    -0.54200
C24         C  0.43553327  0.95897652  0.75031786     0.85900
O25         O  0.40690856  0.96342743  0.81601169    -0.56100
O26         O  0.39427459  0.96330543  0.71023007    -0.59400
In27       In  0.44534759  0.03383276  0.23824810     1.36900
C28         C  0.44151578  0.02320111  0.32631592     0.78300
O29         O  0.46167875  0.02689387  0.22955839    -0.60100
O30         O  0.46930040  0.04926851  0.22904856    -0.51100
C31         C  0.43361070  0.02017084  0.15593496     0.71000
O32         O  0.43113525  0.01388537  0.19588056    -0.45900
C33         C  0.43460191  0.05104952  0.25586565     0.75700
O34         O  0.43362404  0.01598375  0.29163790    -0.57800
O35         O  0.44749455  0.05583629  0.24286588    -0.47900
O36         O  0.45108823  0.03575489  0.31550163    -0.54200
C37         C  0.47239126  0.03937062  0.22691301     0.85900
O38         O  0.44163997  0.03364030  0.15852113    -0.56100
O39         O  0.42716963  0.03753648  0.25635960    -0.59400
In40       In  0.36411962  0.10824953  0.41479161     1.36900
C41         C  0.34981493  0.10018452  0.33168192     0.78300
O42         O  0.35612268  0.12378069  0.41879424    -0.60100
O43         O  0.37856638  0.13213912  0.42495213    -0.51100
C44         C  0.35447171  0.09930413  0.50391266     0.71000
O45         O  0.34663118  0.09436439  0.46707674    -0.45900
C46         C  0.38295014  0.09996167  0.39092556     0.75700
O47         O  0.34454684  0.09339903  0.37026179    -0.57800
O48         O  0.38595666  0.11288129  0.38908729    -0.47900
O49         O  0.36209325  0.11108478  0.33675613    -0.54200
C50         C  0.36832098  0.13476615  0.42420987     0.85900
O51         O  0.36742913  0.10830721  0.49453623    -0.56100
O52         O  0.37078274  0.09151786  0.40877828    -0.59400
In53       In  0.21944650  0.92225968  0.07074055     1.36900
C54         C  0.22772233  0.91638125  0.98683122     0.78300
O55         O  0.20222567  0.89921177  0.06359240    -0.60100
O56         O  0.19607084  0.91417740  0.08698678    -0.51100
C57         C  0.22993943  0.92112692  0.15700002     0.71000
O58         O  0.23583041  0.92100235  0.11798495    -0.45900
C59         C  0.22762494  0.94991326  0.05890585     0.75700
O60         O  0.23028146  0.91264267  0.02682419    -0.57800
O61         O  0.21472541  0.93999990  0.05442287    -0.47900
O62         O  0.22104447  0.92322840  0.99016688    -0.54200
C63         C  0.19224645  0.90131478  0.07728867     0.85900
O64         O  0.21873829  0.92198250  0.15155517    -0.56100
O65         O  0.23615517  0.94556235  0.07028447    -0.59400
In66       In  0.29408478  0.07721496  0.91333468     1.36900
C67         C  0.30637449  0.08312960  0.99991996     0.78300
O68         O  0.30134607  0.10061488  0.90679742    -0.60100
O69         O  0.27911030  0.08567637  0.89781503    -0.51100
C70         C  0.30573967  0.07821218  0.82756506     0.71000
O71         O  0.31264913  0.08044000  0.86632534    -0.45900
C72         C  0.27518987  0.04976907  0.93111700     0.75700
O73         O  0.31261840  0.08201286  0.96305847    -0.57800
O74         O  0.27193740  0.05950867  0.93352297    -0.47900
O75         O  0.29415211  0.08158716  0.99187057    -0.54200
C76         C  0.28893040  0.09868606  0.89853638     0.85900
O77         O  0.29277649  0.07489185  0.83324505    -0.56100
O78         O  0.28781480  0.05397677  0.91681829    -0.59400
In79       In  0.70950322  0.92169071  0.07655943     1.36900
C80         C  0.69585666  0.91542050  0.99239838     0.78300
O81         O  0.71512028  0.94448778  0.06379834    -0.60100
O82         O  0.73197075  0.93973232  0.06067324    -0.51100
C83         C  0.69976378  0.92177592  0.16498389     0.71000
O84         O  0.69201357  0.91871471  0.12797831    -0.45900
C85         C  0.71333433  0.89912467  0.08443708     0.75700
O86         O  0.69042823  0.91720548  0.03023732    -0.57800
O87         O  0.72374286  0.91179779  0.08011958    -0.47900
O88         O  0.70803005  0.91662551  0.99830024    -0.54200
C89         C  0.72820612  0.94901548  0.05465312     0.85900
O90         O  0.71263493  0.92510572  0.15658217    -0.56100
O91         O  0.70112320  0.89815925  0.08568750    -0.59400
In92       In  0.78670213  0.07649176  0.89928187     1.36900
C93         C  0.77873066  0.08158508  0.98492793     0.78300
O94         O  0.77025255  0.05296017  0.89490514    -0.60100
O95         O  0.79082793  0.05850827  0.92067230    -0.51100
C96         C  0.77703904  0.07981489  0.81432906     0.71000
O97         O  0.77117322  0.07968640  0.85376126    -0.45900
C98         C  0.81332221  0.09892757  0.89307803     0.75700
O99         O  0.77214541  0.08075168  0.94651638    -0.57800
O100        O  0.81048125  0.08629366  0.88323825    -0.47900
O101        O  0.78935941  0.07976500  0.97902131    -0.54200
C102        C  0.77810590  0.04859073  0.91292666     0.85900
O103        O  0.78767810  0.07788892  0.81837109    -0.56100
O104        O  0.80247547  0.09981791  0.90537261    -0.59400
In105      In  0.74705450  0.10935807  0.39936607     1.36900
C106        C  0.75341940  0.10121003  0.31628863     0.78300
O107        O  0.72360661  0.09240661  0.39823481    -0.60100
O108        O  0.72912377  0.11330591  0.37647669    -0.51100
C109        C  0.75060873  0.10192329  0.48811624     0.71000
O110        O  0.75260152  0.09649947  0.45069582    -0.45900
C111        C  0.76825682  0.13650571  0.40408051     0.75700
O112        O  0.75046124  0.09373264  0.35396659    -0.57800
O113        O  0.75526343  0.13303551  0.41094826    -0.47900
O114        O  0.75304770  0.11264945  0.32156301    -0.54200
C115        C  0.71924468  0.10047168  0.38196330     0.85900
O116        O  0.74603523  0.11045620  0.47985173    -0.56100
O117        O  0.77023464  0.12607274  0.39631551    -0.59400
In118      In  0.59017794  0.03719474  0.23420926     1.36900
C119        C  0.58671099  0.02384545  0.31801266     0.78300
O120        O  0.61327316  0.04257876  0.23689987    -0.60100
O121        O  0.60879294  0.05915722  0.25260259    -0.51100
C122        C  0.58813062  0.02652846  0.14584100     0.71000
O123        O  0.58572689  0.01912567  0.18341177    -0.45900
C124        C  0.56776136  0.04190928  0.23395899     0.75700
O125        O  0.58520178  0.01757035  0.27830370    -0.57800
O126        O  0.58057972  0.05176748  0.22683829    -0.47900
O127        O  0.58943116  0.03663572  0.31394444    -0.54200
C128        C  0.61811064  0.05526727  0.25156841     0.85900
O129        O  0.59199444  0.03952783  0.15361491    -0.56100
O130        O  0.56659152  0.02978514  0.24107435    -0.59400
In131      In  0.55816488  0.96698057  0.73308995     1.36900
C132        C  0.56676543  0.98061262  0.64940360     0.78300
O133        O  0.57519103  0.96055440  0.73179633    -0.60100
O134        O  0.55421802  0.94490270  0.71130166    -0.51100
C135        C  0.56731652  0.97856662  0.82019777     0.71000
O136        O  0.57200394  0.98552527  0.78165665    -0.45900
C137        C  0.53159156  0.96335409  0.73910157     0.75700
O138        O  0.57399184  0.98548218  0.68743448    -0.57800
O139        O  0.53411421  0.95317858  0.74613487    -0.47900
O140        O  0.55512764  0.96893813  0.65455333    -0.54200
C141        C  0.56720789  0.94811107  0.71539323     0.85900
O142        O  0.55807807  0.96548294  0.81403156    -0.56100
O143        O  0.54269186  0.97515755  0.72977677    -0.59400
In144      In  0.63914985  0.88981566  0.57649540     1.36900
C145        C  0.64976376  0.89624089  0.66504286     0.78300
O146        O  0.63398942  0.90751331  0.58183958    -0.60100
O147        O  0.61672624  0.88626736  0.58992793    -0.51100
C148        C  0.65200628  0.89923557  0.49115109     0.71000
O149        O  0.65865452  0.90377498  0.53041285    -0.45900
C150        C  0.63507393  0.86325192  0.57219511     0.75700
O151        O  0.65680790  0.90340143  0.62873935    -0.57800
O152        O  0.62522837  0.86601175  0.56174016    -0.47900
O153        O  0.63753886  0.88584613  0.65506075    -0.54200
C154        C  0.62084532  0.89952080  0.59141702     0.85900
O155        O  0.63871004  0.89055399  0.49595647    -0.56100
O156        O  0.64689625  0.87413188  0.58305646    -0.59400
In157      In  0.74201747  0.63012103  0.40347376     1.36900
C158        C  0.74991813  0.64358627  0.31877120     0.78300
O159        O  0.76459859  0.63579467  0.42144675    -0.60100
O160        O  0.75028401  0.61430531  0.40075579    -0.51100
C161        C  0.74419595  0.64220619  0.48949281     0.71000
O162        O  0.74788069  0.64917097  0.45073414    -0.45900
C163        C  0.71350010  0.61414425  0.38752489     0.75700
O164        O  0.74872753  0.64945601  0.35638618    -0.57800
O165        O  0.72083551  0.60873412  0.40282689    -0.47900
O166        O  0.74745272  0.63092983  0.32508039    -0.54200
C167        C  0.76291844  0.62351305  0.41351037     0.85900
O168        O  0.73874705  0.62881946  0.48380422    -0.56100
O169        O  0.72069832  0.62755473  0.38229423    -0.59400
In170      In  0.58153807  0.55073692  0.25359802     1.36900
C171        C  0.57374457  0.55568287  0.33890149     0.78300
O172        O  0.55911636  0.53220399  0.25498104    -0.60100
O173        O  0.57580292  0.52787006  0.23787374    -0.51100
C174        C  0.57757624  0.55932324  0.16775799     0.71000
O175        O  0.57484548  0.56346555  0.20672120    -0.45900
C176        C  0.60960131  0.56381500  0.27541808     0.75700
O177        O  0.57390280  0.56243152  0.30158391    -0.57800
O178        O  0.60203270  0.55037250  0.27042381    -0.47900
O179        O  0.57720521  0.54624122  0.33174540    -0.54200
C180        C  0.56245009  0.52285816  0.24380999     0.85900
O181        O  0.58297419  0.55134468  0.17282726    -0.56100
O182        O  0.60310837  0.57045239  0.26472189    -0.59400
In183      In  0.62956607  0.74216975  0.56760962     1.36900
C184        C  0.64060209  0.74622660  0.65575780     0.78300
O185        O  0.63910898  0.76601780  0.56825783    -0.60100
O186        O  0.61650413  0.75323454  0.55980098    -0.51100
C187        C  0.64198703  0.74407312  0.48259669     0.71000
O188        O  0.64771735  0.74395624  0.52194136    -0.45900
C189        C  0.60961230  0.71464453  0.58187284     0.75700
O190        O  0.64776354  0.74698984  0.61866165    -0.57800
O191        O  0.60644452  0.72437223  0.57593158    -0.47900
O192        O  0.62805592  0.74364892  0.64679504    -0.54200
C193        C  0.62728168  0.76572445  0.56330670     0.85900
O194        O  0.62958945  0.74258455  0.48672728    -0.56100
O195        O  0.62277262  0.71885844  0.57544147    -0.59400
In196      In  0.54862779  0.58832851  0.75322344     1.36900
C197        C  0.55554431  0.58138736  0.66986443     0.78300
O198        O  0.53454729  0.56464522  0.76068648    -0.60100
O199        O  0.52439810  0.57725815  0.76055516    -0.51100
C200        C  0.55695220  0.58727978  0.84271316     0.71000
O201        O  0.56266245  0.58522718  0.80603934    -0.45900
C202        C  0.55721449  0.61557161  0.72836537     0.75700
O203        O  0.56337066  0.58415781  0.70667043    -0.57800
O204        O  0.54412192  0.60590726  0.73031143    -0.47900
O205        O  0.54427126  0.58202777  0.67663732    -0.54200
C206        C  0.52290806  0.56481079  0.76302627     0.85900
O207        O  0.54777127  0.59095788  0.83283345    -0.56100
O208        O  0.56574728  0.61158742  0.74341112    -0.59400
In209      In  0.70042514  0.77526713  0.06690534     1.36900
C210        C  0.68595524  0.76682895  0.98458161     0.78300
O211        O  0.69407976  0.79210173  0.06398089    -0.60100
O212        O  0.71550520  0.79854786  0.08432644    -0.51100
C213        C  0.68863057  0.76587481  0.15401197     0.71000
O214        O  0.68139648  0.76281177  0.11585118    -0.45900
C215        C  0.72003482  0.76787856  0.04257919     0.75700
O216        O  0.68252792  0.75869596  0.02072164    -0.57800
O217        O  0.72243064  0.78058481  0.04065714    -0.47900
O218        O  0.69652774  0.77922353  0.99116549    -0.54200
C219        C  0.70625356  0.80227654  0.07625882     0.85900
O220        O  0.70202172  0.77345590  0.14720162    -0.56100
O221        O  0.70794979  0.75915241  0.06035462    -0.59400
In222      In  0.78275163  0.70137453  0.90144127     1.36900
C223        C  0.77668122  0.68916025  0.98859329     0.78300
O224        O  0.79943363  0.69468394  0.89851431    -0.60100
O225        O  0.80603213  0.71628434  0.88242813    -0.51100
C226        C  0.77196462  0.68848565  0.81758425     0.71000
O227        O  0.76727165  0.68223877  0.85733183    -0.45900
C228        C  0.77378357  0.72033835  0.91559304     0.75700
O229        O  0.76955234  0.68278411  0.95156589    -0.57800
O230        O  0.78675018  0.72353994  0.91928292    -0.47900
O231        O  0.78681133  0.70169773  0.98056882    -0.54200
C232        C  0.80967941  0.70685500  0.88655098     0.85900
O233        O  0.78192746  0.70137252  0.82100090    -0.56100
O234        O  0.76558514  0.70762315  0.90176385    -0.59400
In235      In  0.36712204  0.25092009  0.38395939     1.36900
C236        C  0.35369540  0.24604090  0.29953944     0.78300
O237        O  0.37306528  0.27408094  0.38525957    -0.60100
O238        O  0.38887754  0.26913048  0.36272304    -0.51100
C239        C  0.35420878  0.24724457  0.46882982     0.71000
O240        O  0.34738367  0.24322557  0.42982221    -0.45900
C241        C  0.37334032  0.22995509  0.39307794     0.75700
O242        O  0.34818042  0.24711374  0.33826734    -0.57800
O243        O  0.38215711  0.24275940  0.40471721    -0.47900
O244        O  0.36603283  0.24747724  0.30454820    -0.54200
C245        C  0.38553762  0.27874085  0.36866140     0.85900
O246        O  0.36770934  0.25360086  0.46411285    -0.56100
O247        O  0.36169629  0.22814668  0.37593609    -0.59400
In248      In  0.44690874  0.40483485  0.20187024     1.36900
C249        C  0.43903915  0.41079345  0.28592833     0.78300
O250        O  0.42916361  0.38229784  0.21529008    -0.60100
O251        O  0.45052718  0.38610762  0.21337831    -0.51100
C252        C  0.43717857  0.40574146  0.11457078     0.71000
O253        O  0.43386186  0.41008175  0.15189965    -0.45900
C254        C  0.47402282  0.42663303  0.19986180     0.75700
O255        O  0.43265459  0.41010557  0.24720963    -0.57800
O256        O  0.47095927  0.41369419  0.20240768    -0.47900
O257        O  0.44935779  0.40846417  0.28082297    -0.54200
C258        C  0.43742449  0.37725662  0.22135194     0.85900
O259        O  0.44530713  0.40060534  0.12209464    -0.56100
O260        O  0.46329219  0.42833843  0.19541143    -0.59400
In261      In  0.21691911  0.29670508  0.06101285     1.36900
C262        C  0.22270975  0.30931331  0.97484541     0.78300
O263        O  0.23520924  0.29236076  0.05298370    -0.60100
O264        O  0.21405410  0.27497129  0.04256979    -0.51100
C265        C  0.22619640  0.30716138  0.14911358     0.71000
O266        O  0.22994260  0.31492559  0.11187588    -0.45900
C267        C  0.19020096  0.29178017  0.07276646     0.75700
O268        O  0.23026759  0.31548803  0.01146158    -0.57800
O269        O  0.19298395  0.28168247  0.06966893    -0.47900
O270        O  0.21238008  0.29694557  0.98330005    -0.54200
C271        C  0.22740393  0.27938393  0.04115272     0.85900
O272        O  0.21808322  0.29396032  0.14057939    -0.56100
O273        O  0.20109331  0.30417613  0.07016637    -0.59400
In274      In  0.29546906  0.21920997  0.88343933     1.36900
C275        C  0.30847308  0.22641618  0.96898294     0.78300
O276        O  0.29058191  0.23720402  0.89248016    -0.60100
O277        O  0.27323734  0.21593852  0.89627228    -0.51100
C278        C  0.30866123  0.22821072  0.79828567     0.71000
O279        O  0.31528377  0.23094642  0.83759221    -0.45900
C280        C  0.28940874  0.19188392  0.88077121     0.75700
O281        O  0.31436964  0.23319343  0.93093565    -0.57800
O282        O  0.28022882  0.19539613  0.86879874    -0.47900
O283        O  0.29579052  0.21620507  0.96285492    -0.54200
C284        C  0.27731585  0.22910940  0.90045206     0.85900
O285        O  0.29514154  0.22153985  0.80261401    -0.56100
O286        O  0.30149725  0.20229949  0.89174554    -0.59400
In287      In  0.25370970  0.36764128  0.55980513     1.36900
C288        C  0.24506543  0.35539154  0.64583774     0.78300
O289        O  0.27404655  0.36971371  0.58834444    -0.60100
O290        O  0.27514831  0.38847924  0.55941225    -0.51100
C291        C  0.25188408  0.35426130  0.47687468     0.71000
O292        O  0.24487870  0.34783080  0.51396856    -0.45900
C293        C  0.23447883  0.37612334  0.54571307     0.75700
O294        O  0.24679519  0.34908489  0.61030322    -0.57800
O295        O  0.24720193  0.38476436  0.55915207    -0.47900
O296        O  0.24738329  0.36781936  0.63649149    -0.54200
C297        C  0.28164556  0.38298757  0.58073990     0.85900
O298        O  0.26032748  0.36754683  0.48265561    -0.56100
O299        O  0.23196488  0.36353833  0.53840836    -0.59400
In300      In  0.41322397  0.44157914  0.70522126     1.36900
C301        C  0.41900833  0.43427212  0.61981670     0.78300
O302        O  0.39103125  0.42315933  0.69480856    -0.60100
O303        O  0.39399699  0.44411855  0.68840148    -0.51100
C304        C  0.41566823  0.43050983  0.78803114     0.71000
O305        O  0.42330800  0.43192812  0.75176751    -0.45900
C306        C  0.43292921  0.46911690  0.72066248     0.75700
O307        O  0.41856246  0.42788217  0.65825742    -0.57800
O308        O  0.41982619  0.46412223  0.73119555    -0.47900
O309        O  0.41684032  0.44468551  0.62570813    -0.54200
C310        C  0.38548431  0.43074145  0.68466061     0.85900
O311        O  0.40668850  0.43464086  0.78161136    -0.56100
O312        O  0.43558872  0.46010234  0.70138381    -0.59400
In313      In  0.95976584  0.54973109  0.23925033     1.36900
C314        C  0.97380350  0.55902198  0.32157095     0.78300
O315        O  0.95473895  0.56749256  0.24609439    -0.60100
O316        O  0.93787335  0.54631022  0.25928936    -0.51100
C317        C  0.97017341  0.55926469  0.15205482     0.71000
O318        O  0.97803137  0.56226376  0.18873432    -0.45900
C319        C  0.95608767  0.52322848  0.23722291     0.75700
O320        O  0.97933989  0.56463071  0.28167172    -0.57800
O321        O  0.94594289  0.52557320  0.22725736    -0.47900
O322        O  0.96103582  0.54870323  0.31883154    -0.54200
C323        C  0.94191708  0.55955353  0.25970163     0.85900
O324        O  0.95689060  0.55133354  0.16002873    -0.56100
O325        O  0.96786450  0.53436422  0.24611757    -0.59400
In326      In  0.88565429  0.63234069  0.40718908     1.36900
C327        C  0.89300891  0.64526891  0.32160849     0.78300
O328        O  0.90345331  0.62734214  0.39926322    -0.60100
O329        O  0.88214483  0.60998101  0.39432047    -0.51100
C330        C  0.89600972  0.64376266  0.49344638     0.71000
O331        O  0.90130632  0.65029756  0.45461706    -0.45900
C332        C  0.85884899  0.62794655  0.41232970     0.75700
O333        O  0.89850577  0.65176752  0.36037552    -0.57800
O334        O  0.86150680  0.61775495  0.41497833    -0.47900
O335        O  0.88354758  0.63227743  0.32738877    -0.54200
C336        C  0.89541729  0.61413730  0.39153085     0.85900
O337        O  0.88544343  0.63123710  0.48813337    -0.56100
O338        O  0.86993309  0.64014575  0.40868081    -0.59400
In339      In  0.07971959  0.77985494  0.08249634     1.36900
C340        C  0.08505827  0.77293434  0.99575206     0.78300
O341        O  0.05745435  0.76136220  0.07140418    -0.60100
O342        O  0.06006553  0.78217012  0.07523610    -0.51100
C343        C  0.08284708  0.76989022  0.16743540     0.71000
O344        O  0.08843531  0.76873353  0.12908434    -0.45900
C345        C  0.10030915  0.80745157  0.08818351     0.75700
O346        O  0.08533670  0.76672351  0.03379024    -0.57800
O347        O  0.08724894  0.80345084  0.09603805    -0.47900
O348        O  0.08204181  0.78274074  0.00255874    -0.54200
C349        C  0.05153415  0.76894332  0.06855410     0.85900
O350        O  0.07552979  0.77599314  0.16203361    -0.56100
O351        O  0.10249517  0.79729934  0.07791362    -0.59400
In352      In  0.92382436  0.70191914  0.90621999     1.36900
C353        C  0.91606759  0.68745743  0.98813688     0.78300
O354        O  0.94658784  0.70671556  0.91414561    -0.60100
O355        O  0.94177455  0.72264557  0.93674478    -0.51100
C356        C  0.92262244  0.69109144  0.81881175     0.71000
O357        O  0.91787702  0.68333910  0.85586071    -0.45900
C358        C  0.90367777  0.70904975  0.89389472     0.75700
O359        O  0.91881698  0.68255695  0.95087447    -0.57800
O360        O  0.91685337  0.71798992  0.88712173    -0.47900
O361        O  0.91674420  0.69939937  0.98258149    -0.54200
C362        C  0.95105729  0.71874782  0.93382482     0.85900
O363        O  0.92848326  0.70436995  0.82719783    -0.56100
O364        O  0.90094820  0.69660258  0.90528830    -0.59400
In365      In  0.11805218  0.74680017  0.58194843     1.36900
C366        C  0.10960270  0.75297973  0.66404028     0.78300
O367        O  0.09896290  0.72476670  0.58923772    -0.60100
O368        O  0.11949740  0.72735416  0.60359538    -0.51100
C369        C  0.10897860  0.74921879  0.49474724     0.71000
O370        O  0.10912437  0.75653362  0.53044704    -0.45900
C371        C  0.14616081  0.76611541  0.57584147     0.75700
O372        O  0.10405952  0.75303178  0.62410194    -0.57800
O373        O  0.14103471  0.75342969  0.56050828    -0.47900
O374        O  0.11955442  0.74999021  0.66124438    -0.54200
C375        C  0.10604528  0.71895782  0.60288641     0.85900
O376        O  0.11356109  0.74074357  0.50385156    -0.56100
O377        O  0.13695027  0.76865019  0.59430214    -0.59400
In378      In  0.02828052  0.58958307  0.74015224     1.36900
C379        C  0.01727128  0.58393953  0.65224062     0.78300
O380        O  0.03339962  0.61226294  0.73134406    -0.60100
O381        O  0.05054383  0.60796879  0.72416209    -0.51100
C382        C  0.01583690  0.58768511  0.82479020     0.71000
O383        O  0.00871754  0.58249029  0.78667108    -0.45900
C384        C  0.03297755  0.56792783  0.75458235     0.75700
O385        O  0.01160230  0.58716880  0.68628127    -0.57800
O386        O  0.04282142  0.58085007  0.76006995    -0.47900
O387        O  0.02823670  0.58320428  0.66368346    -0.54200
C388        C  0.04652042  0.61718575  0.72196230     0.85900
O389        O  0.02927990  0.59432516  0.81880900    -0.56100
O390        O  0.02092903  0.56630872  0.74253751    -0.59400
In391      In  0.92602618  0.22121811  0.89758168     1.36900
C392        C  0.91878847  0.22641450  0.98311722     0.78300
O393        O  0.90285656  0.20477895  0.89205899    -0.60100
O394        O  0.91796623  0.19759153  0.88555387    -0.51100
C395        C  0.92497453  0.23176699  0.81184916     0.71000
O396        O  0.92063428  0.23474968  0.84993362    -0.45900
C397        C  0.95360298  0.23221318  0.92131104     0.75700
O398        O  0.91919063  0.23335380  0.94607994    -0.57800
O399        O  0.94566254  0.21908755  0.91111241    -0.47900
O400        O  0.92168180  0.21656593  0.97549759    -0.54200
C401        C  0.90489429  0.19434374  0.88576237     0.85900
O402        O  0.93033126  0.22380272  0.81836787    -0.56100
O403        O  0.94765270  0.23967445  0.91564692    -0.59400
In404      In  0.08169701  0.30737813  0.07524600     1.36900
C405        C  0.08806313  0.32046323  0.99060104     0.78300
O406        O  0.10386763  0.31111584  0.06747724    -0.60100
O407        O  0.08805222  0.29102142  0.09596796    -0.51100
C408        C  0.08619726  0.32105729  0.15927006     0.71000
O409        O  0.09268641  0.32717306  0.12124352    -0.45900
C410        C  0.05432008  0.28953505  0.05165401     0.75700
O411        O  0.08444723  0.32523559  0.02629971    -0.57800
O412        O  0.06301093  0.28513810  0.06030863    -0.47900
O413        O  0.08843009  0.30914542  0.99877660    -0.54200
C414        C  0.10097720  0.29898195  0.08310273     0.85900
O415        O  0.07676814  0.30804014  0.15381647    -0.56100
O416        O  0.05934664  0.30274151  0.05927530    -0.59400
In417      In  0.88766461  0.25142813  0.39938396     1.36900
C418        C  0.89381951  0.24441855  0.31475594     0.78300
O419        O  0.87076452  0.22868823  0.41289351    -0.60100
O420        O  0.86370310  0.24358846  0.40077262    -0.51100
C421        C  0.89685356  0.24899673  0.48498275     0.71000
O422        O  0.89947909  0.24414682  0.44744790    -0.45900
C423        C  0.89980837  0.27986795  0.38587830     0.75700
O424        O  0.90142843  0.24636723  0.35153150    -0.57800
O425        O  0.88645373  0.27176013  0.39236573    -0.47900
O426        O  0.88314829  0.24608892  0.32162910    -0.54200
C427        C  0.86018968  0.23069674  0.40935829     0.85900
O428        O  0.88983504  0.25540149  0.47870088    -0.56100
O429        O  0.90680416  0.27333327  0.38791083    -0.59400
In430      In  0.96710380  0.41084884  0.24858443     1.36900
C431        C  0.98033034  0.41927988  0.33246421     0.78300
O432        O  0.97309077  0.43380539  0.23917509    -0.60100
O433        O  0.95092685  0.41853948  0.24485240    -0.51100
C434        C  0.97852385  0.41288252  0.16158477     0.71000
O435        O  0.98589551  0.41651821  0.19957138    -0.45900
C436        C  0.95144852  0.38311673  0.27238699     0.75700
O437        O  0.98639277  0.41771671  0.29586402    -0.57800
O438        O  0.94568455  0.39013591  0.25728071    -0.47900
O439        O  0.96762198  0.41660579  0.32559435    -0.54200
C440        C  0.96040013  0.43163111  0.24021476     0.85900
O441        O  0.96517416  0.40735552  0.16861640    -0.56100
O442        O  0.96498337  0.38991481  0.27143769    -0.59400
In443      In  0.11726711  0.37765616  0.57501408     1.36900
C444        C  0.10840803  0.36448525  0.65983079     0.78300
O445        O  0.13197339  0.36867444  0.57320058    -0.60100
O446        O  0.14155027  0.39120591  0.56603158    -0.51100
C447        C  0.10827957  0.36711482  0.48732987     0.71000
O448        O  0.10460263  0.35939849  0.52453840    -0.45900
C449        C  0.10878532  0.39671613  0.59301243     0.75700
O450        O  0.10164227  0.35915331  0.62129324    -0.57800
O451        O  0.12188310  0.40014046  0.59084308    -0.47900
O452        O  0.11975396  0.37642853  0.65417055    -0.54200
C453        C  0.14341545  0.38049214  0.56811861     0.85900
O454        O  0.11605151  0.38038258  0.49536429    -0.56100
O455        O  0.10022659  0.38376812  0.58224776    -0.59400
In456      In  0.03653769  0.45138688  0.74934814     1.36900
C457        C  0.02358370  0.44313581  0.66416636     0.78300
O458        O  0.02550726  0.46428747  0.75568091    -0.60100
O459        O  0.04827761  0.47547582  0.75858344    -0.51100
C460        C  0.02747602  0.44136885  0.83789635     0.71000
O461        O  0.01995140  0.43570980  0.80079057    -0.45900
C462        C  0.05719032  0.44529628  0.72849382     0.75700
O463        O  0.01808126  0.43600101  0.70201312    -0.57800
O464        O  0.05933431  0.45795851  0.72805039    -0.47900
O465        O  0.03540257  0.45448158  0.67100749    -0.54200
C466        C  0.03688728  0.47624384  0.75981528     0.85900
O467        O  0.03985634  0.45178433  0.82898426    -0.56100
O468        O  0.04487849  0.43601487  0.74318151    -0.59400
C469        C  0.08293202  0.43988031  0.64857716    -0.11200
C470        C  0.08388114  0.42915182  0.67396640     0.11400
C471        C  0.07772336  0.42519960  0.72033589    -0.03000
C472        C  0.06940898  0.43106076  0.73762572    -0.05700
C473        C  0.06778773  0.44126740  0.71115486    -0.16500
C474        C  0.07502658  0.44612287  0.66647283     0.02400
C475        C  0.09051801  0.42153984  0.64968040     0.12400
C476        C  0.08010363  0.41498411  0.75143626     0.63000
H477        H  0.06399641  0.42763448  0.77196399     0.12400
C478        C  0.07390166  0.45733283  0.63668116     0.55100
H479        H  0.08805258  0.44294799  0.61369224     0.08200
C480        C  0.08224260  0.40933620  0.62062002    -0.05600
C481        C  0.08883646  0.40194870  0.60134952    -0.06300
C482        C  0.10347424  0.40652496  0.60918243    -0.15900
C483        C  0.11200237  0.41944573  0.63546811    -0.01500
C484        C  0.10526797  0.42666710  0.65551203    -0.09100
C485        C  0.06648175  0.40415766  0.61012037     0.65200
H486        H  0.08245191  0.39232175  0.58040230     0.10700
C487        C  0.12801792  0.42552207  0.64346594     0.63600
H488        H  0.11140357  0.43628152  0.67679557     0.08000
F489        F  0.05961112  0.45285780  0.62736218    -0.19400
F490        F  0.08094948  0.45970997  0.59307655    -0.15700
F491        F  0.08006609  0.47021340  0.66137477    -0.19100
F492        F  0.09467023  0.42083753  0.75998286    -0.22500
F493        F  0.07499487  0.40189562  0.72869442    -0.24000
F494        F  0.07318696  0.41256776  0.79530666    -0.18000
F495        F  0.13412393  0.43827846  0.66899722    -0.20500
F496        F  0.13500330  0.42828077  0.59966630    -0.21600
F497        F  0.13029071  0.41583906  0.66917959    -0.18800
F498        F  0.06040120  0.39213263  0.58088827    -0.18900
F499        F  0.06525647  0.41487118  0.58705589    -0.22700
F500        F  0.05868222  0.40067478  0.65236466    -0.24400
C501        C  0.99165973  0.43499398  0.45786390    -0.11200
C502        C  0.00074454  0.42969592  0.47070648     0.11400
C503        C  0.00322685  0.42106468  0.43810210    -0.03000
C504        C  0.99670853  0.41833000  0.39261680    -0.05700
C505        C  0.98740652  0.42344208  0.37991073    -0.16500
C506        C  0.98485517  0.43199758  0.41291194     0.02400
C507        C  0.00703140  0.43303132  0.51951392     0.12400
C508        C  0.01231019  0.41441197  0.45188957     0.63000
H509        H  0.99839341  0.41168028  0.36719087     0.12400
C510        C  0.97505912  0.43800260  0.40113884     0.55100
H511        H  0.98975549  0.44133933  0.48397050     0.08200
C512        C  0.01935928  0.44631290  0.53045811    -0.05600
C513        C  0.02430437  0.44897048  0.57803467    -0.06300
C514        C  0.01718732  0.43897471  0.61517643    -0.15900
C515        C  0.00466247  0.42567290  0.60393284    -0.01500
C516        C  0.99983866  0.42300071  0.55601660    -0.09100
C517        C  0.02707910  0.45775021  0.49224199     0.65200
H518        H  0.03376664  0.45912601  0.58658296     0.10700
C519        C  0.99631197  0.41430229  0.64163118     0.63600
H520        H  0.99023924  0.41305742  0.54647862     0.08000
F521        F  0.97617902  0.44798605  0.43484461    -0.19400
F522        F  0.96089969  0.42697491  0.40038119    -0.15700
F523        F  0.97867523  0.44475430  0.35691817    -0.19100
F524        F  0.00573149  0.40480394  0.48908310    -0.22500
F525        F  0.02583244  0.42494800  0.46646114    -0.24000
F526        F  0.01400914  0.40706816  0.41390687    -0.18000
F527        F  0.99099716  0.41976067  0.67590769    -0.20500
F528        F  0.00520439  0.41006423  0.66308813    -0.21600
F529        F  0.98472984  0.40219238  0.62207196    -0.18800
F530        F  0.03936839  0.46953434  0.50997522    -0.18900
F531        F  0.01804476  0.46246017  0.47536590    -0.22700
F532        F  0.03110748  0.45219312  0.45440875    -0.24400
C533        C  0.02037871  0.43975874  0.97334882    -0.11200
C534        C  0.00801502  0.42620668  0.97755333     0.11400
C535        C  0.00265221  0.41728106  0.93651670    -0.03000
C536        C  0.00956501  0.42257439  0.89205564    -0.05700
C537        C  0.02185842  0.43626639  0.88742994    -0.16500
C538        C  0.02774750  0.44481211  0.92941334     0.02400
C539        C  0.00041158  0.42212042  0.02474370     0.12400
C540        C  0.98973864  0.40219296  0.93965286     0.63000
H541        H  0.00528478  0.41600509  0.86021821     0.12400
C542        C  0.04161439  0.45922757  0.92851889     0.55100
H543        H  0.02411914  0.44647423  0.00504283     0.08200
C544        C  0.00586880  0.41837950  0.06510035    -0.05600
C545        C  0.99819591  0.41514687  0.10873176    -0.06300
C546        C  0.98524673  0.41536937  0.11312912    -0.15900
C547        C  0.97977905  0.41906909  0.07249778    -0.01500
C548        C  0.98766165  0.42263881  0.02930581    -0.09100
C549        C  0.01975435  0.41787352  0.06229379     0.65200
H550        H  0.00234209  0.41248902  0.14009960     0.10700
C551        C  0.96591797  0.41964264  0.07460234     0.63600
H552        H  0.98393476  0.42592189  0.99832691     0.08000
F553        F  0.05280016  0.45736268  0.91264758    -0.19400
F554        F  0.04529636  0.46545822  0.97361508    -0.15700
F555        F  0.04012338  0.46863226  0.89849955    -0.19100
F556        F  0.97754658  0.40271839  0.95217114    -0.22500
F557        F  0.99225395  0.39438947  0.97379444    -0.24000
F558        F  0.98703920  0.39495750  0.89636386    -0.18000
F559        F  0.96320992  0.42443677  0.03191470    -0.20500
F560        F  0.96677508  0.42890591  0.11063807    -0.21600
F561        F  0.95443384  0.40605082  0.08335506    -0.18800
F562        F  0.02227370  0.41252037  0.10405800    -0.18900
F563        F  0.03128534  0.43152620  0.05512447    -0.22700
F564        F  0.01905730  0.40912893  0.02475066    -0.24400
C565        C  0.90727230  0.31812917  0.35969210    -0.11200
C566        C  0.92167340  0.32475502  0.34478103     0.11400
C567        C  0.92920971  0.31711677  0.34788451    -0.03000
C568        C  0.92167642  0.30263761  0.36240356    -0.05700
C569        C  0.90695936  0.29560299  0.37484640    -0.16500
C570        C  0.89973186  0.30367933  0.37503312     0.02400
C571        C  0.92858846  0.33970846  0.32575348     0.12400
C572        C  0.94513749  0.32423518  0.33565583     0.63000
H573        H  0.92729472  0.29662930  0.36340543     0.12400
C574        C  0.88420262  0.29726944  0.39127127     0.55100
H575        H  0.90189905  0.32437797  0.35830192     0.08200
C576        C  0.92701576  0.34264507  0.27722190    -0.05600
C577        C  0.93444913  0.35700204  0.26097230    -0.06300
C578        C  0.94321111  0.36834507  0.29187370    -0.15900
C579        C  0.94426106  0.36545326  0.34091449    -0.01500
C580        C  0.93688624  0.35111853  0.35702749    -0.09100
C581        C  0.91740376  0.33063896  0.24304745     0.65200
H582        H  0.93360984  0.35947812  0.22386846     0.10700
C583        C  0.95280117  0.37753012  0.37634248     0.63600
H584        H  0.93763225  0.34865098  0.39422011     0.08000
F585        F  0.87522034  0.28655561  0.35984175    -0.19400
F586        F  0.87987958  0.30742991  0.39266233    -0.15700
F587        F  0.88263712  0.29167656  0.43701551    -0.19100
F588        F  0.95292131  0.33573812  0.36605519    -0.22500
F589        F  0.94742517  0.32909405  0.28879804    -0.24000
F590        F  0.95038051  0.31486575  0.34054297    -0.18000
F591        F  0.95167369  0.37246530  0.42272452    -0.20500
F592        F  0.94767458  0.38705137  0.37604000    -0.21600
F593        F  0.96720619  0.38473609  0.36389379    -0.18800
F594        F  0.91801086  0.33565393  0.19688728    -0.18900
F595        F  0.90329554  0.32427768  0.25866841    -0.22700
F596        F  0.92157457  0.32038474  0.24132568    -0.24400
C597        C  0.08925638  0.33809672  0.76351391    -0.11200
C598        C  0.09753130  0.34630696  0.80247465     0.11400
C599        C  0.10898594  0.36042180  0.79485394    -0.03000
C600        C  0.11177038  0.36591955  0.74793415    -0.05700
C601        C  0.10376569  0.35768993  0.70821100    -0.16500
C602        C  0.09212986  0.34349043  0.71619878     0.02400
C603        C  0.09465391  0.33952431  0.85057273     0.12400
C604        C  0.11863827  0.36942515  0.83587328     0.63000
H605        H  0.12060328  0.37670220  0.74192959     0.12400
C606        C  0.08291926  0.33386670  0.67553333     0.55100
H607        H  0.08066034  0.32725491  0.77058744     0.08200
C608        C  0.08422426  0.33935390  0.88212403    -0.05600
C609        C  0.08273325  0.33336737  0.92808031    -0.06300
C610        C  0.09099126  0.32721794  0.94255844    -0.15900
C611        C  0.10136408  0.32728679  0.91059725    -0.01500
C612        C  0.10294059  0.33344057  0.86491340    -0.09100
C613        C  0.07454251  0.34519430  0.86694606     0.65200
H614        H  0.07476288  0.33306590  0.95270571     0.10700
C615        C  0.11108784  0.32137673  0.92479076     0.63600
H616        H  0.11076488  0.33365192  0.83979895     0.08000
F617        F  0.07240632  0.32052781  0.69186218    -0.19400
F618        F  0.09146883  0.33170433  0.64326016    -0.15700
F619        F  0.07605313  0.34014474  0.65242961    -0.19100
F620        F  0.12659398  0.36340101  0.85220717    -0.22500
F621        F  0.11048347  0.37000669  0.87333032    -0.24000
F622        F  0.12811707  0.38338151  0.82170450    -0.18000
F623        F  0.10307329  0.30662525  0.92981108    -0.20500
F624        F  0.11792541  0.32748982  0.96764020    -0.21600
F625        F  0.12160931  0.32436371  0.89062299    -0.18800
F626        F  0.06550513  0.34444300  0.90377440    -0.18900
F627        F  0.06610284  0.33727910  0.82869501    -0.22700
F628        F  0.08272126  0.35940163  0.85324937    -0.24400
C629        C  0.09784910  0.36033572  0.35467315    -0.11200
C630        C  0.09753640  0.34726672  0.34766922     0.11400
C631        C  0.10106722  0.34097692  0.38599078    -0.03000
C632        C  0.10408704  0.34769098  0.43115433    -0.05700
C633        C  0.10444039  0.36079729  0.43847670    -0.16500
C634        C  0.10147803  0.36740005  0.39944328     0.02400
C635        C  0.09424527  0.34078302  0.29900790     0.12400
C636        C  0.10209622  0.32749426  0.37878907     0.63000
H637        H  0.10670610  0.34295916  0.46097247     0.12400
C638        C  0.10196879  0.38169064  0.40484356     0.55100
H639        H  0.09544407  0.36506627  0.32433409     0.08200
C640        C  0.08001700  0.33110655  0.28393492    -0.05600
C641        C  0.07787304  0.32482902  0.23808896    -0.06300
C642        C  0.08941290  0.32839720  0.20654535    -0.15900
C643        C  0.10366073  0.33838803  0.22146481    -0.01500
C644        C  0.10577737  0.34440684  0.26766875    -0.09100
C645        C  0.06716990  0.32783221  0.31550327     0.65200
H646        H  0.06707731  0.31728792  0.22602545     0.10700
C647        C  0.11666001  0.34240966  0.18966965     0.63600
H648        H  0.11652645  0.35198519  0.28005658     0.08000
F649        F  0.09729982  0.38535572  0.36375416    -0.19400
F650        F  0.11594354  0.39244617  0.41368361    -0.15700
F651        F  0.09319568  0.38098313  0.44242792    -0.19100
F652        F  0.11282725  0.33019317  0.34592182    -0.22500
F653        F  0.08920018  0.31640762  0.36188352    -0.24000
F654        F  0.10533800  0.32298844  0.42109665    -0.18000
F655        F  0.11636090  0.35012216  0.15046692    -0.20500
F656        F  0.11657011  0.33013523  0.17415546    -0.21600
F657        F  0.12948262  0.35081943  0.21377612    -0.18800
F658        F  0.05436410  0.31743453  0.29536646    -0.18900
F659        F  0.06639428  0.34018847  0.32159556    -0.22700
F660        F  0.06850302  0.32294828  0.35997135    -0.24400
C661        C  0.99242354  0.24170138  0.94774549    -0.11200
C662        C  0.99639636  0.25286911  0.98111427     0.11400
C663        C  0.98612263  0.25665881  0.99617333    -0.03000
C664        C  0.97233807  0.24952797  0.97560783    -0.05700
C665        C  0.96834876  0.23852725  0.94156788    -0.16500
C666        C  0.97838453  0.23418518  0.92835133     0.02400
C667        C  0.01163483  0.26130162  0.99722114     0.12400
C668        C  0.98970483  0.26821820  0.03387755     0.63000
H669        H  0.96447238  0.25252557  0.98616846     0.12400
C670        C  0.97443641  0.22196085  0.89329693     0.55100
H671        H  0.00048540  0.23903898  0.93663507     0.08200
C672        C  0.01734950  0.25664672  0.03431232    -0.05600
C673        C  0.03139639  0.26614325  0.05103884    -0.06300
C674        C  0.03964052  0.28008727  0.03233248    -0.15900
C675        C  0.03404350  0.28448017  0.99387057    -0.01500
C676        C  0.02020061  0.27484566  0.97652965    -0.09100
C677        C  0.00863980  0.24176257  0.05597959     0.65200
H678        H  0.03597760  0.26283136  0.07946442     0.10700
C679        C  0.04266811  0.29913705  0.97033349     0.63600
H680        H  0.01564800  0.27800616  0.94756219     0.08000
F681        F  0.96382180  0.20923969  0.91306061    -0.19400
F682        F  0.98610009  0.22026024  0.88254166    -0.15700
F683        F  0.96947876  0.22461819  0.85091846    -0.19100
F684        F  0.00001599  0.28145341  0.01651181    -0.22500
F685        F  0.99487430  0.26510710  0.07484555    -0.24000
F686        F  0.97774809  0.26919620  0.04665866    -0.18000
F687        F  0.03562697  0.30057769  0.93098133    -0.20500
F688        F  0.05577575  0.30109025  0.95479063    -0.21600
F689        F  0.04490116  0.30980834  0.00272046    -0.18800
F690        F  0.01581597  0.23972387  0.09368485    -0.18900
F691        F  0.00602642  0.23152295  0.02135957    -0.22700
F692        F  0.99564658  0.23971463  0.07315343    -0.24400
C693        C  0.91322831  0.24425249  0.09342464    -0.11200
C694        C  0.90925946  0.23333697  0.12748662     0.11400
C695        C  0.90799388  0.22008675  0.11390915    -0.03000
C696        C  0.91110518  0.21834738  0.06626079    -0.05700
C697        C  0.91528173  0.22931542  0.03192528    -0.16500
C698        C  0.91646890  0.24260123  0.04573310     0.02400
C699        C  0.90568113  0.23587644  0.17649860     0.12400
C700        C  0.90331944  0.20782337  0.14947332     0.63000
H701        H  0.91015042  0.20823855  0.05535660     0.12400
C702        C  0.92134124  0.25510515  0.01112954     0.55100
H703        H  0.91374014  0.25413816  0.10475913     0.08200
C704        C  0.91639874  0.24433941  0.21050118    -0.05600
C705        C  0.91202891  0.24669537  0.25558824    -0.06300
C706        C  0.89740758  0.24088712  0.26725877    -0.15900
C707        C  0.88671336  0.23204048  0.23353333    -0.01500
C708        C  0.89111227  0.22998668  0.18818463    -0.09100
C709        C  0.93232517  0.25081628  0.19920799     0.65200
H710        H  0.92004484  0.25334395  0.28187824     0.10700
C711        C  0.87075283  0.22439983  0.24545923     0.63600
H712        H  0.88316454  0.22373520  0.16114983     0.08000
F713        F  0.92289591  0.26728524  0.03368541    -0.19400
F714        F  0.91127050  0.25146767  0.97501912    -0.15700
F715        F  0.93453596  0.25854453  0.99146030    -0.19100
F716        F  0.88938331  0.20312469  0.16452399    -0.22500
F717        F  0.91234199  0.21238460  0.18887444    -0.24000
F718        F  0.90369708  0.19622498  0.12943709    -0.18000
F719        F  0.86608071  0.23424940  0.24844986    -0.20500
F720        F  0.86828938  0.21721665  0.28870020    -0.21600
F721        F  0.86260560  0.21437112  0.21077563    -0.18800
F722        F  0.94088303  0.25826647  0.23798029    -0.18900
F723        F  0.93610915  0.26028373  0.16122425    -0.22700
F724        F  0.93525457  0.24005922  0.18720821    -0.24400
C725        C  0.92608104  0.23846442  0.67670443    -0.11200
C726        C  0.91589754  0.24293169  0.67258459     0.11400
C727        C  0.90974734  0.24506256  0.71455636    -0.03000
C728        C  0.91333423  0.24167721  0.75936905    -0.05700
C729        C  0.92311238  0.23660821  0.76357839    -0.16500
C730        C  0.93023260  0.23576770  0.72164853     0.02400
C731        C  0.91143734  0.24473706  0.62376412     0.12400
C732        C  0.89941659  0.25085690  0.71196759     0.63000
H733        H  0.90815950  0.24261484  0.79146323     0.12400
C734        C  0.94228339  0.23225717  0.72375743     0.55100
H735        H  0.93062219  0.23686867  0.64411569     0.08200
C736        C  0.92036496  0.25661608  0.59401772    -0.05600
C737        C  0.91523998  0.25756817  0.54849419    -0.06300
C738        C  0.90154622  0.24720838  0.53266684    -0.15900
C739        C  0.89257122  0.23542697  0.56230804    -0.01500
C740        C  0.89782759  0.23421605  0.60720472    -0.09100
C741        C  0.93512292  0.26831239  0.61037777     0.65200
H742        H  0.92185686  0.26646374  0.52485839     0.10700
C743        C  0.87752834  0.22427613  0.54634132     0.63600
H744        H  0.89128110  0.22509818  0.63010916     0.08000
F745        F  0.95215130  0.24053635  0.75864214    -0.19400
F746        F  0.94962548  0.23512677  0.68058246    -0.15700
F747        F  0.93668685  0.21785664  0.73405286    -0.19100
F748        F  0.88669560  0.24091187  0.69038487    -0.22500
F749        F  0.90553359  0.26343351  0.68560186    -0.24000
F750        F  0.89615014  0.25384979  0.75707418    -0.18000
F751        F  0.87023958  0.21408558  0.58153234    -0.20500
F752        F  0.87837751  0.21732239  0.50575181    -0.21600
F753        F  0.86962611  0.23089336  0.53590335    -0.18800
F754        F  0.94131265  0.27951891  0.57780460    -0.18900
F755        F  0.94421115  0.26276233  0.61529744    -0.22700
F756        F  0.93399947  0.27384123  0.65394675    -0.24400
C757        C  0.02614920  0.50466043  0.78489253    -0.11200
C758        C  0.03802100  0.51692666  0.76597441     0.11400
C759        C  0.04993122  0.51608387  0.74824634    -0.03000
C760        C  0.04921580  0.50263935  0.74792961    -0.05700
C761        C  0.03696496  0.49009661  0.76430835    -0.16500
C762        C  0.02524508  0.49114511  0.78384795     0.02400
C763        C  0.03714565  0.53024918  0.76232283     0.12400
C764        C  0.06325168  0.52932873  0.72946232     0.63000
H765        H  0.05814363  0.50177538  0.73362371     0.12400
C766        C  0.01178129  0.47820036  0.80347727     0.55100
H767        H  0.01728056  0.50571069  0.79877643     0.08200
C768        C  0.02947299  0.53216553  0.72451154    -0.05600
C769        C  0.02858589  0.54473956  0.72358608    -0.06300
C770        C  0.03517377  0.55544425  0.75870300    -0.15900
C771        C  0.04285684  0.55356809  0.79667424    -0.01500
C772        C  0.04361887  0.54084146  0.79796965    -0.09100
C773        C  0.02218852  0.52095037  0.68532404     0.65200
H774        H  0.02269142  0.54634681  0.69503870     0.10700
C775        C  0.04974086  0.56464831  0.83632633     0.63600
H776        H  0.04922277  0.53899873  0.82692327     0.08000
F777        F  0.00420322  0.46891396  0.76641394    -0.19400
F778        F  0.00268117  0.48209375  0.82572876    -0.15700
F779        F  0.01552541  0.47117143  0.83703185    -0.19100
F780        F  0.06936658  0.53935085  0.76582568    -0.22500
F781        F  0.05962846  0.53532401  0.69198648    -0.24000
F782        F  0.07350331  0.52612988  0.71293245    -0.18000
F783        F  0.05577459  0.56021143  0.87145631    -0.20500
F784        F  0.03947327  0.56701666  0.85783721    -0.21600
F785        F  0.06054339  0.57740048  0.81743575    -0.18800
F786        F  0.01608672  0.52541384  0.65051994    -0.18900
F787        F  0.01137912  0.50833568  0.70491158    -0.22700
F788        F  0.03211612  0.51825442  0.66304647    -0.24400
C789        C  0.09587411  0.68379646  0.66761362    -0.11200
C790        C  0.08244313  0.67460313  0.64691014     0.11400
C791        C  0.07694290  0.67988522  0.61114932    -0.03000
C792        C  0.08534010  0.69428048  0.59657124    -0.05700
C793        C  0.09880802  0.70359241  0.61732772    -0.16500
C794        C  0.10418905  0.69829182  0.65375484     0.02400
C795        C  0.07380050  0.65988825  0.66684118     0.12400
C796        C  0.06214609  0.67044855  0.58922251     0.63000
H797        H  0.08126462  0.69848760  0.56931161     0.12400
C798        C  0.11817816  0.70795240  0.67996942     0.55100
H799        H  0.09959291  0.67955148  0.69589788     0.08200
C800        C  0.07609021  0.64849329  0.65346189    -0.05600
C801        C  0.06719876  0.63482416  0.67358850    -0.06300
C802        C  0.05616877  0.63225973  0.70633279    -0.15900
C803        C  0.05430451  0.64390376  0.72104584    -0.01500
C804        C  0.06332169  0.65755953  0.70121131    -0.09100
C805        C  0.08778274  0.65076104  0.61786820     0.65200
H806        H  0.06857382  0.62590115  0.66283692     0.10700
C807        C  0.04325617  0.64221286  0.75852558     0.63600
H808        H  0.06215278  0.66661860  0.71184311     0.08000
F809        F  0.12961014  0.71305485  0.64825091    -0.19400
F810        F  0.12074707  0.70073769  0.71627064    -0.15700
F811        F  0.11757818  0.71936723  0.70050009    -0.19100
F812        F  0.05165159  0.66628295  0.62418664    -0.22500
F813        F  0.06139651  0.65835062  0.56899732    -0.24000
F814        F  0.05913523  0.67756290  0.55374763    -0.18000
F815        F  0.04522198  0.63621364  0.79960846    -0.20500
F816        F  0.02947733  0.63356257  0.74115724    -0.21600
F817        F  0.04452329  0.65527223  0.77097014    -0.18800
F818        F  0.08796692  0.63818165  0.60897707    -0.18900
F819        F  0.10110539  0.66073409  0.63578338    -0.22700
F820        F  0.08556015  0.65569761  0.57476833    -0.24400
C821        C  0.99132451  0.73539365  0.95510400    -0.11200
C822        C  0.99263085  0.74106693  0.00134809     0.11400
C823        C  0.98051317  0.74053329  0.02370706    -0.03000
C824        C  0.96715512  0.73344845  0.99982527    -0.05700
C825        C  0.96569964  0.72713845  0.95443100    -0.16500
C826        C  0.97803421  0.72843759  0.93103565     0.02400
C827        C  0.00709581  0.74812792  0.02401784     0.12400
C828        C  0.98175482  0.74752968  0.07222258     0.63000
H829        H  0.95765883  0.73256475  0.01684452     0.12400
C830        C  0.97728147  0.72276441  0.88058047     0.55100
H831        H  0.00085732  0.73633343  0.93815843     0.08200
C832        C  0.01284107  0.74018811  0.04568276    -0.05600
C833        C  0.02719275  0.74757967  0.06171633    -0.06300
C834        C  0.03596281  0.76255388  0.05662373    -0.15900
C835        C  0.02990948  0.77053835  0.03669912    -0.01500
C836        C  0.01558225  0.76307222  0.02028156    -0.09100
C837        C  0.00396677  0.72395867  0.05096896     0.65200
H838        H  0.03180532  0.74157975  0.07736253     0.10700
C839        C  0.03844944  0.78676134  0.03131143     0.63600
H840        H  0.01090992  0.76881743  0.00313246     0.08000
F841        F  0.99085392  0.72799379  0.86086920    -0.19400
F842        F  0.96966129  0.72693200  0.85106192    -0.15700
F843        F  0.97055914  0.70794428  0.88152490    -0.19100
F844        F  0.99052575  0.76223761  0.06824724    -0.22500
F845        F  0.98760326  0.74239882  0.10556236    -0.24000
F846        F  0.96849196  0.74480201  0.08926245    -0.18000
F847        F  0.03038959  0.79210238  0.01034054    -0.20500
F848        F  0.05037435  0.79067022  0.00259811    -0.21600
F849        F  0.04276258  0.79307273  0.07603380    -0.18800
F850        F  0.01135754  0.71848948  0.07569265    -0.18900
F851        F  0.00049884  0.71757018  0.00620562    -0.22700
F852        F  0.99142874  0.72022727  0.07589187    -0.24400
C853        C  0.08782836  0.75617887  0.76757186    -0.11200
C854        C  0.09822479  0.76145513  0.80402154     0.11400
C855        C  0.11227626  0.76406137  0.79428483    -0.03000
C856        C  0.11549452  0.76141046  0.74780101    -0.05700
C857        C  0.10517403  0.75621388  0.71091843    -0.16500
C858        C  0.09105165  0.75358311  0.72079916     0.02400
C859        C  0.09415946  0.76422174  0.85224656     0.12400
C860        C  0.12380460  0.76954481  0.83295528     0.63000
H861        H  0.12621020  0.76334540  0.73995349     0.12400
C862        C  0.07931094  0.74772938  0.68291604     0.55100
H863        H  0.07711873  0.75412961  0.77624094     0.08200
C864        C  0.09395857  0.77698540  0.86265999    -0.05600
C865        C  0.09099320  0.77934894  0.90994733    -0.06300
C866        C  0.08811929  0.76934410  0.94694508    -0.15900
C867        C  0.08797721  0.75633805  0.93591006    -0.01500
C868        C  0.09089237  0.75400621  0.88842705    -0.09100
C869        C  0.09674795  0.78798248  0.82377560     0.65200
H870        H  0.09093968  0.78915481  0.91832654     0.10700
C871        C  0.08476499  0.74489133  0.97350444     0.63600
H872        H  0.09093818  0.74424639  0.87912790     0.08000
F873        F  0.06620817  0.74506717  0.70135562     0.05800
F874        F  0.07752195  0.73494813  0.66481904    -0.15700
F875        F  0.08299534  0.75758176  0.64612017    -0.19100
F876        F  0.11975193  0.75948336  0.86918800    -0.22500
F877        F  0.12568882  0.78225422  0.85196830    -0.24000
F878        F  0.13694233  0.77211380  0.81516296    -0.18000
F879        F  0.08412162  0.73275326  0.95382853    -0.20500
F880        F  0.07161138  0.74072637  0.99494666    -0.21600
F881        F  0.09550194  0.75023730  0.00786405    -0.18800
F882        F  0.09702674  0.80009614  0.84205146    -0.18900
F883        F  0.08596132  0.78199653  0.78972278    -0.22700
F884        F  0.10984907  0.79226744  0.80182025    -0.24400
C885        C  0.09379990  0.74225912  0.36685422    -0.11200
C886        C  0.09607043  0.75588525  0.35468852     0.11400
C887        C  0.10182671  0.76701891  0.38927698    -0.03000
C888        C  0.10596083  0.76435018  0.43426159    -0.05700
C889        C  0.10417181  0.75085802  0.44620125    -0.16500
C890        C  0.09763342  0.73945405  0.41231823     0.02400
C891        C  0.09236717  0.75827678  0.30535492     0.12400
C892        C  0.10324157  0.78154643  0.37906773     0.63000
H893        H  0.11064958  0.77286901  0.46068485     0.12400
C894        C  0.09428825  0.72430335  0.42419362     0.55100
H895        H  0.08907002  0.73384060  0.34008438     0.08200
C896        C  0.10226278  0.76226678  0.26686638    -0.05600
C897        C  0.09857800  0.76567936  0.22222872    -0.06300
C898        C  0.08531052  0.76506742  0.21484879    -0.15900
C899        C  0.07501352  0.76006886  0.25265503    -0.01500
C900        C  0.07881071  0.75683950  0.29745958    -0.09100
C901        C  0.11665013  0.76292506  0.27314425     0.65200
H902        H  0.10622172  0.76916855  0.19288346     0.10700
C903        C  0.05995334  0.75773279  0.24570034     0.63600
H904        H  0.07130079  0.75340335  0.32720186     0.08000
F905        F  0.10694286  0.72396001  0.42870546    -0.19400
F906        F  0.08610883  0.71460238  0.38874648    -0.15700
F907        F  0.08658769  0.71982724  0.46666977    -0.19100
F908        F  0.08970448  0.77986115  0.37269177    -0.22500
F909        F  0.11130948  0.78749398  0.33803497    -0.24000
F910        F  0.10986772  0.79112150  0.41643213    -0.18000
F911        F  0.05115237  0.75085123  0.28466904    -0.20500
F912        F  0.05372310  0.74927952  0.20557315    -0.21600
F913        F  0.06053995  0.77078141  0.24003148    -0.18800
F914        F  0.12482738  0.76733009  0.23159596    -0.18900
F915        F  0.11436704  0.74946334  0.28502775    -0.22700
F916        F  0.12447742  0.77247008  0.30928998    -0.24400
C917        C  0.92012939  0.66506982  0.59875866    -0.11200
C918        C  0.90979079  0.66282513  0.63369424     0.11400
C919        C  0.89497364  0.65444042  0.62241242    -0.03000
C920        C  0.89099724  0.64796670  0.57681005    -0.05700
C921        C  0.90130569  0.65036611  0.54141556    -0.16500
C922        C  0.91615506  0.65915370  0.55232081     0.02400
C923        C  0.91470645  0.67047359  0.68037637     0.12400
C924        C  0.88344894  0.65287059  0.65773967     0.63000
H925        H  0.87971435  0.64143560  0.56768296     0.12400
C926        C  0.92777427  0.66225291  0.51537623     0.55100
H927        H  0.93137682  0.67185619  0.60790513     0.08200
C928        C  0.91755897  0.66434679  0.72076303    -0.05600
C929        C  0.92029997  0.67152390  0.76523527    -0.06300
C930        C  0.92103302  0.68492112  0.76973883    -0.15900
C931        C  0.91946323  0.69160908  0.72794011    -0.01500
C932        C  0.91619585  0.68413450  0.68404216    -0.09100
C933        C  0.91798812  0.65048190  0.71645870     0.65200
H934        H  0.92193344  0.66670893  0.79695726     0.10700
C935        C  0.92073859  0.70632725  0.72938641     0.63600
H936        H  0.91441500  0.68874457  0.65205513     0.08000
F937        F  0.94142354  0.66960320  0.53516617    -0.19400
F938        F  0.92711823  0.67061450  0.47890849    -0.15700
F939        F  0.92585315  0.64951005  0.49645982    -0.19100
F940        F  0.88508330  0.66621750  0.66750523    -0.22500
F941        F  0.88458266  0.64684303  0.70008134    -0.24000
F942        F  0.86971904  0.64423338  0.63976345    -0.18000
F943        F  0.93451282  0.71652505  0.74313694    -0.20500
F944        F  0.91084378  0.70624297  0.76147247    -0.21600
F945        F  0.91815521  0.71035611  0.68499156    -0.18800
F946        F  0.92133363  0.64654689  0.75973863    -0.18900
F947        F  0.92837477  0.65227214  0.68334273    -0.22700
F948        F  0.90480749  0.63941233  0.70143782    -0.24400
C949        C  0.90983730  0.67166418  0.21659889    -0.11200
C950        C  0.90330323  0.66241120  0.17767118     0.11400
C951        C  0.89415062  0.64758208  0.18572639    -0.03000
C952        C  0.89099849  0.64262423  0.23325645    -0.05700
C953        C  0.89716609  0.65187588  0.27288144    -0.16500
C954        C  0.90708750  0.66669141  0.26434639     0.02400
C955        C  0.90622838  0.66862037  0.12870509     0.12400
C956        C  0.88805061  0.63701718  0.14423694     0.63000
H957        H  0.88379495  0.63129709  0.23965174     0.12400
C958        C  0.91482345  0.67731323  0.30468827     0.55100
H959        H  0.91710411  0.68291584  0.20899687     0.08200
C960        C  0.89861401  0.67508760  0.10967891    -0.05600
C961        C  0.90192011  0.68074698  0.06299844    -0.06300
C962        C  0.91252403  0.68014380  0.03517363    -0.15900
C963        C  0.92032809  0.67390244  0.05461238    -0.01500
C964        C  0.91700833  0.66822504  0.10137811    -0.09100
C965        C  0.88718748  0.67615373  0.13880155     0.65200
H966        H  0.89630660  0.68583932  0.04793550     0.10700
C967        C  0.93245737  0.67373688  0.02698302     0.63600
H968        H  0.92284043  0.66344902  0.11722201     0.08000
F969        F  0.90489181  0.67804096  0.33452972    -0.19400
F970        F  0.92401027  0.69102015  0.28756946    -0.15700
F971        F  0.92302942  0.67306035  0.33065422    -0.19100
F972        F  0.89918599  0.63693932  0.11943805    -0.22500
F973        F  0.88053403  0.64091181  0.11328528    -0.24000
F974        F  0.87878141  0.62316160  0.15986769    -0.18000
F975        F  0.94236318  0.68751196  0.01232565    -0.20500
F976        F  0.92693925  0.66492963  0.98724832    -0.21600
F977        F  0.93965361  0.66864724  0.05465977    -0.18800
F978        F  0.88072589  0.68235810  0.11276295    -0.18900
F979        F  0.89336060  0.68448628  0.17913421    -0.22700
F980        F  0.87657041  0.66261968  0.15286537    -0.24400
C981        C  0.95984162  0.49119057  0.27442156    -0.11200
C982        C  0.95328717  0.48180841  0.23579663     0.11400
C983        C  0.94630464  0.48538868  0.19979834    -0.03000
C984        C  0.94710171  0.49889840  0.20190314    -0.05700
C985        C  0.95453020  0.50871141  0.23898347    -0.16500
C986        C  0.96061451  0.50462464  0.27677267     0.02400
C987        C  0.95463856  0.46868323  0.23332277     0.12400
C988        C  0.93799143  0.47491724  0.15976143     0.63000
H989        H  0.94219686  0.50202993  0.17403205     0.12400
C990        C  0.96774248  0.51427512  0.31990220     0.55100
H991        H  0.96480691  0.48805807  0.30210401     0.08200
C992        C  0.96734888  0.46929440  0.21608358    -0.05600
C993        C  0.96843020  0.45679546  0.21761253    -0.06300
C994        C  0.95738892  0.44376083  0.23644740    -0.15900
C995        C  0.94455030  0.44313793  0.25327005    -0.01500
C996        C  0.94345236  0.45569380  0.25137445    -0.09100
C997        C  0.97990477  0.48322042  0.19727239     0.65200
H998        H  0.97817954  0.45723865  0.20482844     0.10700
C999        C  0.93222105  0.42951754  0.27442527     0.63600
H1000       H  0.93392667  0.45558214  0.26488354     0.08000
F1001       F  0.98071150  0.52600220  0.30643685    -0.19400
F1002       F  0.97047775  0.50714051  0.35603823    -0.15700
F1003       F  0.95882716  0.51893966  0.33858884    -0.19100
F1004       F  0.92648225  0.46274285  0.17909300    -0.22500
F1005       F  0.94677109  0.47104740  0.13536033    -0.24000
F1006       F  0.93267447  0.48076026  0.12697693    -0.18000
F1007       F  0.92114224  0.43155095  0.29043783    -0.20500
F1008       F  0.93708009  0.42507118  0.31310240    -0.21600
F1009       F  0.92664705  0.41884817  0.23988822    -0.18800
F1010       F  0.99071624  0.48119406  0.17848569    -0.18900
F1011       F  0.98573107  0.49310066  0.23415754    -0.22700
F1012       F  0.97528399  0.48881500  0.16136169    -0.24400
C1013       C  0.91524306  0.56648939  0.32982795    -0.11200
C1014       C  0.91927692  0.58040047  0.31440700     0.11400
C1015       C  0.93021977  0.58713472  0.27930881    -0.03000
C1016       C  0.93678701  0.57961265  0.26085889    -0.05700
C1017       C  0.93292007  0.56570705  0.27659896    -0.16500
C1018       C  0.92182061  0.55893490  0.31149558     0.02400
C1019       C  0.91226906  0.58791184  0.33708971     0.12400
C1020       C  0.93510258  0.60229384  0.26193727     0.63000
H1021       H  0.94531452  0.58473768  0.23454858     0.12400
C1022       C  0.91728306  0.54409143  0.33104526     0.55100
H1023       H  0.90703512  0.56170767  0.35731752     0.08200
C1024       C  0.89840496  0.58515607  0.32349322    -0.05600
C1025       C  0.89303068  0.59355784  0.34383476    -0.06300
C1026       C  0.90109549  0.60458163  0.37693995    -0.15900
C1027       C  0.91462311  0.60670653  0.39263489    -0.01500
C1028       C  0.91987923  0.59817926  0.37263502    -0.09100
C1029       C  0.88942897  0.57350511  0.28729769     0.65200
H1030       H  0.88263427  0.59188285  0.33271785     0.10700
C1031       C  0.92350608  0.61781887  0.43046304     0.63600
H1032       H  0.93026962  0.59977256  0.38348418     0.08000
F1033       F  0.91184466  0.53411587  0.29429459    -0.19400
F1034       F  0.90668317  0.53986340  0.36578093    -0.15700
F1035       F  0.92899379  0.54406206  0.35165389    -0.19100
F1036       F  0.94136309  0.61193086  0.29927165    -0.22500
F1037       F  0.92344348  0.60311712  0.24487322    -0.24000
F1038       F  0.94513632  0.60640993  0.22529985    -0.18000
F1039       F  0.91497835  0.61634026  0.46979313    -0.20500
F1040       F  0.92913741  0.63147931  0.41163057    -0.21600
F1041       F  0.93489279  0.61628125  0.44625028    -0.18800
F1042       F  0.87672930  0.57327954  0.27645052    -0.18900
F1043       F  0.88593871  0.56022624  0.30576984    -0.22700
F1044       F  0.89708297  0.57575122  0.24513032    -0.24400
C1045       C  0.00350085  0.58753376  0.53038870    -0.11200
C1046       C  0.00083948  0.57470261  0.50835796     0.11400
C1047       C  0.00461717  0.56544164  0.53213578    -0.03000
C1048       C  0.00978996  0.56875374  0.57950071    -0.05700
C1049       C  0.01165181  0.58117373  0.60268389    -0.16500
C1050       C  0.00909622  0.59106976  0.57720828     0.02400
C1051       C  0.99384725  0.57111965  0.46057699     0.12400
C1052       C  0.00351341  0.55236436  0.50703700     0.63000
H1053       H  0.01244294  0.56165955  0.59889374     0.12400
C1054       C  0.01284820  0.60552629  0.59859525     0.55100
H1055       H  0.00099794  0.59468494  0.51066801     0.08200
C1056       C  0.97870212  0.56393882  0.45588215    -0.05600
C1057       C  0.97272085  0.56052181  0.40967416    -0.06300
C1058       C  0.98134575  0.56395340  0.36830466    -0.15900
C1059       C  0.99657805  0.57130366  0.37312796    -0.01500
C1060       C  0.00255242  0.57492843  0.41951724    -0.09100
C1061       C  0.96890236  0.55972544  0.49957762     0.65200
H1062       H  0.96113410  0.55498241  0.40557761     0.10700
C1063       C  0.00651779  0.57487171  0.33009816     0.63600
H1064       H  0.01411803  0.58057396  0.42433580     0.08000
F1065       F  0.01124044  0.61422258  0.56553961    -0.19400
F1066       F  0.02703861  0.61259374  0.61370536    -0.15700
F1067       F  0.00396930  0.60359603  0.63724734    -0.19100
F1068       F  0.01260446  0.55673713  0.46771410    -0.22500
F1069       F  0.98958434  0.54331714  0.49167079    -0.24000
F1070       F  0.00740050  0.54461329  0.53698774    -0.18000
F1071       F  0.02077513  0.58075584  0.34368077    -0.20500
F1072       F  0.00279408  0.56250340  0.30420792    -0.21600
F1073       F  0.00547576  0.58473371  0.30106267    -0.18800
F1074       F  0.95451365  0.55305225  0.48683651    -0.18900
F1075       F  0.97201084  0.57179684  0.52615662    -0.22700
F1076       F  0.97087680  0.55033337  0.52801415    -0.24400
C1077       C  0.00806592  0.59107678  0.95684501    -0.11200
C1078       C  0.99533181  0.57797689  0.96367060     0.11400
C1079       C  0.98883766  0.56861943  0.92423649    -0.03000
C1080       C  0.99570801  0.57252090  0.87928601    -0.05700
C1081       C  0.00889041  0.58528382  0.87275079    -0.16500
C1082       C  0.01514199  0.59486978  0.91212166     0.02400
C1083       C  0.98944912  0.57392570  0.01308704     0.12400
C1084       C  0.97485466  0.55444381  0.92983826     0.63000
H1085       H  0.99099404  0.56534404  0.84900227     0.12400
C1086       C  0.02908864  0.60908163  0.90731263     0.55100
H1087       H  0.01264985  0.59813116  0.98749344     0.08200
C1088       C  0.99560372  0.56878146  0.04706211    -0.05600
C1089       C  0.98898063  0.56425768  0.09214853    -0.06300
C1090       C  0.97630966  0.56437479  0.10371443    -0.15900
C1091       C  0.97021809  0.56965180  0.06991688    -0.01500
C1092       C  0.97713253  0.57464230  0.02530440    -0.09100
C1093       C  0.00905842  0.56799024  0.03576223     0.65200
H1094       H  0.99356055  0.56035204  0.11869611     0.10700
C1095       C  0.95657598  0.57009705  0.08082698     0.63600
H1096       H  0.97276708  0.57881593  0.99894142     0.08000
F1097       F  0.04044086  0.60666474  0.89964018    -0.19400
F1098       F  0.03212234  0.61742984  0.94823359    -0.15700
F1099       F  0.02804991  0.61676888  0.86933892    -0.19100
F1100       F  0.96381531  0.55701304  0.94148585    -0.22500
F1101       F  0.97622791  0.54633948  0.96573197    -0.24000
F1102       F  0.97106806  0.54642348  0.88799615    -0.18000
F1103       F  0.95352669  0.57718894  0.04537785    -0.20500
F1104       F  0.95804480  0.57717591  0.12377771    -0.21600
F1105       F  0.94505446  0.55624722  0.08395051    -0.18800
F1106       F  0.01212914  0.56100797  0.07155397    -0.18900
F1107       F  0.02072332  0.58170422  0.03134108    -0.22700
F1108       F  0.00726484  0.56057740  0.99336813    -0.24400
C1109       C  0.17453116  0.37313066  0.58203742    -0.11200
C1110       C  0.18498182  0.38368562  0.55226269     0.11400
C1111       C  0.18185319  0.39329968  0.52760708    -0.03000
C1112       C  0.16829205  0.39218635  0.53469603    -0.05700
C1113       C  0.15775067  0.38153474  0.56441802    -0.16500
C1114       C  0.16098476  0.37191515  0.58903944     0.02400
C1115       C  0.19892204  0.38394200  0.54713526     0.12400
C1116       C  0.19269588  0.40444936  0.49335546     0.63000
H1117       H  0.16566416  0.39938840  0.51593438     0.12400
C1118       C  0.15037673  0.36052232  0.62331830     0.55100
H1119       H  0.17711394  0.36573645  0.59972610     0.08200
C1120       C  0.20974805  0.39000144  0.58283350    -0.05600
C1121       C  0.22185557  0.38820520  0.57886815    -0.06300
C1122       C  0.22304116  0.37998206  0.54184500    -0.15900
C1123       C  0.21243624  0.37434008  0.50524411    -0.01500
C1124       C  0.20054551  0.37648570  0.50852594    -0.09100
C1125       C  0.20812422  0.39766053  0.62621537     0.65200
H1126       H  0.23000096  0.39234879  0.60665160     0.10700
C1127       C  0.21338679  0.36573501  0.46352399     0.63600
H1128       H  0.19201262  0.37170840  0.48212636     0.08000
F1129       F  0.15673438  0.35426277  0.64960512    -0.19400
F1130       F  0.13908872  0.34977415  0.59770249    -0.15700
F1131       F  0.14513087  0.36660773  0.65553554    -0.19100
F1132       F  0.19538186  0.39767786  0.45586374    -0.22500
F1133       F  0.20545096  0.41321860  0.51708491    -0.24000
F1134       F  0.18773933  0.41304528  0.47419284    -0.18000
F1135       F  0.20976696  0.35211988  0.47897880    -0.20500
F1136       F  0.22721065  0.37248897  0.44495146    -0.21600
F1137       F  0.20410362  0.36434780  0.42678301    -0.18800
F1138       F  0.22027588  0.40358596  0.65490161    -0.18900
F1139       F  0.19657857  0.38805354  0.65378552    -0.22700
F1140       F  0.20580361  0.40860979  0.61158873    -0.24400
C1141       C  0.34955388  0.40712677  0.62234977    -0.11200
C1142       C  0.34168306  0.41366173  0.63683901     0.11400
C1143       C  0.34814290  0.42576783  0.66767318    -0.03000
C1144       C  0.36248622  0.43104277  0.68252470    -0.05700
C1145       C  0.37035821  0.42444610  0.66821590    -0.16500
C1146       C  0.36386832  0.41237374  0.63699666     0.02400
C1147       C  0.32631625  0.40674104  0.62206797     0.12400
C1148       C  0.33995189  0.43311070  0.68454440     0.63000
H1149       H  0.36764125  0.44030550  0.70596378     0.12400
C1150       C  0.37205018  0.40523061  0.61796259     0.55100
H1151       H  0.34426344  0.39770123  0.59964966     0.08200
C1152       C  0.32201138  0.40852027  0.57571116    -0.05600
C1153       C  0.30723589  0.40095369  0.56398433    -0.06300
C1154       C  0.29687361  0.39132866  0.59640777    -0.15900
C1155       C  0.30122817  0.38962688  0.64289492    -0.01500
C1156       C  0.31593244  0.39733912  0.65468828    -0.09100
C1157       C  0.33300757  0.41799624  0.53841672     0.65200
H1158       H  0.30370724  0.40206445  0.52866530     0.10700
C1159       C  0.29042483  0.37995865  0.68045994     0.63600
H1160       H  0.31953040  0.39592873  0.68950945     0.08000
F1161       F  0.36435156  0.39509033  0.58304549    -0.19400
F1162       F  0.37475989  0.39835463  0.65495590    -0.15700
F1163       F  0.38491966  0.41543280  0.59763324    -0.19100
F1164       F  0.32780963  0.42354696  0.70982231    -0.22500
F1165       F  0.33585231  0.43810258  0.64542428    -0.24000
F1166       F  0.34823327  0.44466620  0.71431854    -0.18000
F1167       F  0.28464852  0.36572622  0.66730962    -0.20500
F1168       F  0.27949718  0.38317718  0.68489699    -0.21600
F1169       F  0.29673491  0.38171227  0.72513181    -0.18800
F1170       F  0.32649723  0.41902147  0.49692598    -0.18900
F1171       F  0.34165870  0.41232837  0.52630579    -0.22700
F1172       F  0.34152135  0.43169272  0.55643783    -0.24400
C1173       C  0.14994994  0.27843358  0.06171592    -0.11200
C1174       C  0.14911895  0.28938494  0.08624327     0.11400
C1175       C  0.16140016  0.30026348  0.10995536    -0.03000
C1176       C  0.17443482  0.30022824  0.10600175    -0.05700
C1177       C  0.17554731  0.28971658  0.07933586    -0.16500
C1178       C  0.16305849  0.27847166  0.05723177     0.02400
C1179       C  0.13569947  0.29009427  0.08270665     0.12400
C1180       C  0.16078698  0.31203860  0.13835290     0.63000
H1181       H  0.18401160  0.30864870  0.12312614     0.12400
C1182       C  0.16364007  0.26702804  0.02696141     0.55100
H1183       H  0.14031587  0.27017549  0.04436923     0.08200
C1184       C  0.13310991  0.29653601  0.04258652    -0.05600
C1185       C  0.12132396  0.29877953  0.04401001    -0.06300
C1186       C  0.11201767  0.29462800  0.08363383    -0.15900
C1187       C  0.11415128  0.28751609  0.12279446    -0.01500
C1188       C  0.12602314  0.28527648  0.12145651    -0.09100
C1189       C  0.14287278  0.30121430  0.99874434     0.65200
H1190       H  0.11934497  0.30398997  0.01411926     0.10700
C1191       C  0.10444320  0.28302328  0.16661654     0.63600
H1192       H  0.12817271  0.28021278  0.15138754     0.08000
F1193       F  0.15052060  0.25790991  0.00558777    -0.19400
F1194       F  0.16727231  0.25881474  0.05547902    -0.15700
F1195       F  0.17376237  0.27343631  0.99088935    -0.19100
F1196       F  0.15112520  0.30603665  0.17583772    -0.22500
F1197       F  0.15644793  0.31952560  0.10898970    -0.24000
F1198       F  0.17404498  0.32176018  0.15757520    -0.18000
F1199       F  0.09059830  0.27277530  0.15380708    -0.20500
F1200       F  0.10431914  0.29483398  0.18585369    -0.21600
F1201       F  0.10904863  0.27719910  0.20191373    -0.18800
F1202       F  0.13867720  0.30775551  0.96468961    -0.18900
F1203       F  0.14244388  0.28937085  0.97760248    -0.22700
F1204       F  0.15687847  0.31088350  0.01189628    -0.24400
C1205       C  0.21992797  0.31721815  0.84237749    -0.11200
C1206       C  0.23331527  0.32950864  0.83508945     0.11400
C1207       C  0.24306276  0.33549370  0.87379653    -0.03000
C1208       C  0.23916912  0.32854057  0.91867762    -0.05700
C1209       C  0.22582862  0.31595712  0.92606871    -0.16500
C1210       C  0.21594984  0.31019006  0.88699306     0.02400
C1211       C  0.23648476  0.33606062  0.78652096     0.12400
C1212       C  0.25737990  0.34928522  0.86781438     0.63000
H1213       H  0.24657589  0.33297071  0.94850925     0.12400
C1214       C  0.20118570  0.29681716  0.89158051     0.55100
H1215       H  0.21259607  0.31313392  0.81222486     0.08200
C1216       C  0.24087506  0.33046879  0.74823541    -0.05600
C1217       C  0.24344351  0.33712487  0.70310554    -0.06300
C1218       C  0.24139948  0.34887460  0.69463279    -0.15900
C1219       C  0.23627564  0.35400340  0.73270141    -0.01500
C1220       C  0.23403754  0.34750012  0.77816189    -0.09100
C1221       C  0.24276326  0.31747888  0.75486641     0.65200
H1222       H  0.24715948  0.33315521  0.67389585     0.10700
C1223       C  0.23263829  0.36585343  0.72569928     0.63600
H1224       H  0.23019324  0.35119870  0.80782123     0.08000
F1225       F  0.20267958  0.28502911  0.90153343    -0.19400
F1226       F  0.19324163  0.29385388  0.84973645    -0.15700
F1227       F  0.19344638  0.29872282  0.92775298    -0.19100
F1228       F  0.25497986  0.36053207  0.85834810    -0.22500
F1229       F  0.26504851  0.34794002  0.83020158    -0.24000
F1230       F  0.26576293  0.35266045  0.90874364    -0.18000
F1231       F  0.22648063  0.36795908  0.76639092    -0.20500
F1232       F  0.22289457  0.36223667  0.68849890    -0.21600
F1233       F  0.24497252  0.37869573  0.71550348    -0.18800
F1234       F  0.24766599  0.31419638  0.71340410    -0.18900
F1235       F  0.22973293  0.30561976  0.76693144    -0.22700
F1236       F  0.25260747  0.32010133  0.79093044    -0.24400
C1237       C  0.23425870  0.31203739  0.28450918    -0.11200
C1238       C  0.23898490  0.32669934  0.28998414     0.11400
C1239       C  0.24002280  0.33496875  0.24913259    -0.03000
C1240       C  0.23578860  0.32811492  0.20416914    -0.05700
C1241       C  0.23066119  0.31332217  0.19847431    -0.16500
C1242       C  0.22995223  0.30510230  0.23952899     0.02400
C1243       C  0.24221002  0.33302203  0.33923777     0.12400
C1244       C  0.24576904  0.35102998  0.25292461     0.63000
H1245       H  0.23642688  0.33436161  0.17287644     0.12400
C1246       C  0.22477470  0.28913982  0.23644789     0.55100
H1247       H  0.23372070  0.30599699  0.31627539     0.08200
C1248       C  0.23110636  0.33127238  0.37096561    -0.05600
C1249       C  0.23487016  0.33815462  0.41590917    -0.06300
C1250       C  0.24927497  0.34688932  0.42977312    -0.15900
C1251       C  0.26040977  0.34841148  0.39853843    -0.01500
C1252       C  0.25663296  0.34128821  0.35376373    -0.09100
C1253       C  0.21533777  0.32237809  0.35710846     0.65200
H1254       H  0.22651321  0.33704973  0.44036433     0.10700
C1255       C  0.27613048  0.35712907  0.41288511     0.63600
H1256       H  0.26493015  0.34228193  0.32926480     0.08000
F1257       F  0.22633320  0.28371324  0.27964157    -0.19400
F1258       F  0.23267906  0.28670599  0.20226993    -0.15700
F1259       F  0.21033758  0.28169011  0.22439733    -0.19100
F1260       F  0.26019498  0.35788190  0.26493214    -0.22500
F1261       F  0.23832302  0.35386860  0.28773563    -0.24000
F1262       F  0.24443643  0.35676026  0.21007231    -0.18000
F1263       F  0.27823384  0.35205202  0.45593031    -0.20500
F1264       F  0.28008861  0.37142458  0.41794866    -0.21600
F1265       F  0.28509122  0.35625385  0.37887090    -0.18800
F1266       F  0.20638020  0.32296798  0.39177264    -0.18900
F1267       F  0.21164270  0.30817332  0.35138214    -0.22700
F1268       F  0.21289365  0.32741744  0.31458119    -0.24400
C1269       C  0.25192927  0.26368460  0.01819393    -0.11200
C1270       C  0.24544727  0.25529899  0.97727379     0.11400
C1271       C  0.23228123  0.25372700  0.96047115    -0.03000
C1272       C  0.22645092  0.26129944  0.98392842    -0.05700
C1273       C  0.23341398  0.27043811  0.02303514    -0.16500
C1274       C  0.24623805  0.27144124  0.04123614     0.02400
C1275       C  0.25284293  0.24837832  0.95301358     0.12400
C1276       C  0.22452575  0.24424858  0.91763810     0.63000
H1277       H  0.21659187  0.26051630  0.97074213     0.12400
C1278       C  0.25388734  0.28055241  0.08484077     0.55100
H1279       H  0.26180385  0.26443875  0.03110340     0.08200
C1280       C  0.26507765  0.25624348  0.92341860    -0.05600
C1281       C  0.27241748  0.24937342  0.90571994    -0.06300
C1282       C  0.26774449  0.23484925  0.91553285    -0.15900
C1283       C  0.25488729  0.22675720  0.94271220    -0.01500
C1284       C  0.24788575  0.23381831  0.96181859    -0.09100
C1285       C  0.27039759  0.27185980  0.91079742     0.65200
H1286       H  0.28208157  0.25543800  0.88450438     0.10700
C1287       C  0.24861959  0.21084094  0.95260667     0.63600
H1288       H  0.23852306  0.22806211  0.98461018     0.08000
F1289       F  0.26454839  0.27796056  0.10132175    -0.19400
F1290       F  0.24414013  0.27748247  0.12177475    -0.15700
F1291       F  0.26026314  0.29494816  0.07320037    -0.19100
F1292       F  0.22006932  0.23009685  0.92851962    -0.22500
F1293       F  0.23361894  0.24836633  0.87836928    -0.24000
F1294       F  0.21250000  0.24510426  0.90500591    -0.18000
F1295       F  0.25844631  0.20860030  0.97764069    -0.20500
F1296       F  0.24523904  0.20339398  0.90964761    -0.21600
F1297       F  0.23613022  0.20524677  0.97967795    -0.18800
F1298       F  0.28164639  0.27711756  0.87818318    -0.18900
F1299       F  0.27517885  0.28026578  0.95161828    -0.22700
F1300       F  0.25935674  0.27318055  0.89057824    -0.24400
C1301       C  0.42290954  0.41364120  0.51368516    -0.11200
C1302       C  0.42660863  0.42373090  0.47675065     0.11400
C1303       C  0.42763534  0.43711826  0.48668529    -0.03000
C1304       C  0.42511179  0.44002323  0.53383374    -0.05700
C1305       C  0.42175185  0.43010935  0.57144389    -0.16500
C1306       C  0.42071217  0.41663440  0.56124892     0.02400
C1307       C  0.42973030  0.42012522  0.42820769     0.12400
C1308       C  0.43133954  0.44830134  0.44764742     0.63000
H1309       H  0.42577131  0.45020163  0.54160460     0.12400
C1310       C  0.41726752  0.40536539  0.59975949     0.55100
H1311       H  0.42195856  0.40339230  0.50483185     0.08200
C1312       C  0.44274917  0.42031088  0.41800872    -0.05600
C1313       C  0.44506864  0.41698293  0.37131055    -0.06300
C1314       C  0.43519299  0.41409690  0.33389046    -0.15900
C1315       C  0.42231588  0.41436793  0.34386465    -0.01500
C1316       C  0.41963890  0.41690549  0.39145558    -0.09100
C1317       C  0.45438309  0.42442966  0.45579003     0.65200
H1318       H  0.45489539  0.41686437  0.36358600     0.10700
C1319       C  0.41151168  0.41223721  0.30497987     0.63600
H1320       H  0.40970619  0.41669179  0.40036091     0.08000
F1321       F  0.42796165  0.41074329  0.63426806    -0.19400
F1322       F  0.41644024  0.39301398  0.58127725    -0.15700
F1323       F  0.40414518  0.40155359  0.62077535    -0.19100
F1324       F  0.42012165  0.44348405  0.41526041    -0.22500
F1325       F  0.44369991  0.45083454  0.42373529    -0.24000
F1326       F  0.43369697  0.46124700  0.46623465    -0.18000
F1327       F  0.39987615  0.41299745  0.32303827    -0.20500
F1328       F  0.40630415  0.39890181  0.28384072    -0.21600
F1329       F  0.41806337  0.42287450  0.27063837    -0.18800
F1330       F  0.46660525  0.42495071  0.43706530    -0.18900
F1331       F  0.44937886  0.41451127  0.49262648    -0.22700
F1332       F  0.45832474  0.43785564  0.47410215    -0.24400
C1333       C  0.40902660  0.41271788  0.91112464    -0.11200
C1334       C  0.42313123  0.41682379  0.92478686     0.11400
C1335       C  0.43456666  0.42423032  0.89184708    -0.03000
C1336       C  0.43160281  0.42835463  0.84734780    -0.05700
C1337       C  0.41759263  0.42500140  0.83459294    -0.16500
C1338       C  0.40598881  0.41655840  0.86617075     0.02400
C1339       C  0.42567506  0.41350144  0.97429061     0.12400
C1340       C  0.44978335  0.42764878  0.90363839     0.63000
H1341       H  0.44030004  0.43446214  0.82235620     0.12400
C1342       C  0.39045214  0.41121705  0.85213321     0.55100
H1343       H  0.40042228  0.40667047  0.93649845     0.08200
C1344       C  0.42756103  0.42274435  0.01320810    -0.05600
C1345       C  0.43100469  0.41956686  0.05849583    -0.06300
C1346       C  0.43252268  0.40747231  0.06605821    -0.15900
C1347       C  0.42969935  0.39771739  0.02764738    -0.01500
C1348       C  0.42632253  0.40096356  0.98217610    -0.09100
C1349       C  0.42597730  0.43592434  0.00681600     0.65200
H1350       H  0.43287355  0.42675785  0.08833137     0.10700
C1351       C  0.42992299  0.38383193  0.03455114     0.63600
H1352       H  0.42443677  0.39387717  0.95199424     0.08000
F1353       F  0.38787095  0.42257985  0.85049680    -0.19400
F1354       F  0.38090455  0.40126277  0.88462509    -0.15700
F1355       F  0.38771510  0.40465633  0.80759542    -0.19100
F1356       F  0.44993268  0.41501980  0.91119033    -0.22500
F1357       F  0.45462799  0.43600746  0.94457002    -0.24000
F1358       F  0.45930985  0.43501030  0.86674869    -0.18000
F1359       F  0.42467451  0.37499431  0.99467900    -0.20500
F1360       F  0.42141847  0.37638341  0.07342001    -0.21600
F1361       F  0.44387344  0.38682324  0.04235000    -0.18800
F1362       F  0.42857289  0.44362184  0.04908038    -0.18900
F1363       F  0.41212963  0.43176638  0.99216086    -0.22700
F1364       F  0.43559839  0.44495401  0.97266299    -0.24400
C1365       C  0.40105782  0.31882749  0.34444910    -0.11200
C1366       C  0.41105811  0.32098611  0.30832812     0.11400
C1367       C  0.41400800  0.30989876  0.29699016    -0.03000
C1368       C  0.40595368  0.29652868  0.31982820    -0.05700
C1369       C  0.39504473  0.29389445  0.35321503    -0.16500
C1370       C  0.39291365  0.30542936  0.36729721     0.02400
C1371       C  0.41814029  0.33496343  0.28261278     0.12400
C1372       C  0.42535052  0.31207991  0.25999538     0.63000
H1373       H  0.40774644  0.28780064  0.31004574     0.12400
C1374       C  0.38215568  0.30377633  0.40590524     0.55100
H1375       H  0.39934603  0.32766804  0.35342146     0.08200
C1376       C  0.41111898  0.33802731  0.24536048    -0.05600
C1377       C  0.41813638  0.35179744  0.22456093    -0.06300
C1378       C  0.43196271  0.36239881  0.23912999    -0.15900
C1379       C  0.43926434  0.35903319  0.27480745    -0.01500
C1380       C  0.43203816  0.34539846  0.29660085    -0.09100
C1381       C  0.39615845  0.32690455  0.22839927     0.65200
H1382       H  0.41270156  0.35452519  0.19736826     0.10700
C1383       C  0.45442545  0.36982172  0.29092123     0.63600
H1384       H  0.43713445  0.34275784  0.32521716     0.08000
F1385       F  0.36826977  0.29519076  0.38927141    -0.19400
F1386       F  0.38362789  0.31687663  0.41896875    -0.15700
F1387       F  0.38427161  0.29769626  0.44658583    -0.19100
F1388       F  0.43871160  0.32283972  0.27498193    -0.22500
F1389       F  0.42212465  0.31588898  0.21636370    -0.24000
F1390       F  0.42616796  0.29975276  0.25317325    -0.18000
F1391       F  0.45913524  0.36446163  0.32744150    -0.20500
F1392       F  0.45489224  0.38216423  0.30766192    -0.21600
F1393       F  0.46381317  0.37318350  0.25268933    -0.18800
F1394       F  0.39188342  0.33165390  0.18894841    -0.18900
F1395       F  0.38628917  0.32393300  0.26478648    -0.22700
F1396       F  0.39593408  0.31437579  0.21548564    -0.24400
C1397       C  0.32855398  0.23039875  0.57484379    -0.11200
C1398       C  0.33525428  0.24117872  0.60962344     0.11400
C1399       C  0.34827150  0.25386870  0.59829406    -0.03000
C1400       C  0.35406049  0.25538426  0.55185448    -0.05700
C1401       C  0.34713064  0.24479891  0.51646053    -0.16500
C1402       C  0.33412120  0.23204353  0.52801187     0.02400
C1403       C  0.32857297  0.23854424  0.65814439     0.12400
C1404       C  0.35597843  0.26575691  0.63502737     0.63000
H1405       H  0.36405042  0.26498042  0.54262197     0.12400
C1406       C  0.32619204  0.22011381  0.49156131     0.55100
H1407       H  0.31876176  0.22068213  0.58474212     0.08200
C1408       C  0.31647599  0.24012035  0.66799489    -0.05600
C1409       C  0.31044514  0.23690906  0.71449303    -0.06300
C1410       C  0.31607530  0.23211703  0.75092996    -0.15900
C1411       C  0.32802952  0.23027053  0.74053401    -0.01500
C1412       C  0.33406511  0.23356362  0.69417306    -0.09100
C1413       C  0.30986401  0.24494917  0.62927856     0.65200
H1414       H  0.30116927  0.23800695  0.72269479     0.10700
C1415       C  0.33399847  0.22418846  0.77729200     0.63600
H1416       H  0.34309209  0.23211261  0.68530248     0.08000
F1417       F  0.32062614  0.22483621  0.45583248    -0.19400
F1418       F  0.31486675  0.20801805  0.51219116    -0.15700
F1419       F  0.33548491  0.21612150  0.47153136    -0.19100
F1420       F  0.36043823  0.26075861  0.67319487    -0.22500
F1421       F  0.34681026  0.27034325  0.65173317    -0.24000
F1422       F  0.36798903  0.27750560  0.61569948    -0.18000
F1423       F  0.34443577  0.22170608  0.75775567    -0.20500
F1424       F  0.32303118  0.21125026  0.79459736    -0.21600
F1425       F  0.34019254  0.23375048  0.81486809    -0.18800
F1426       F  0.29877180  0.24668255  0.64706134    -0.18900
F1427       F  0.30435422  0.23482086  0.59303650    -0.22700
F1428       F  0.32018171  0.25793047  0.61019541    -0.24400
C1429       C  0.33445464  0.24424688  0.07453252    -0.11200
C1430       C  0.32754071  0.23390525  0.11040961     0.11400
C1431       C  0.31444533  0.22124476  0.10005607    -0.03000
C1432       C  0.30867759  0.21939024  0.05357133    -0.05700
C1433       C  0.31562056  0.22964066  0.01700391    -0.16500
C1434       C  0.32890782  0.24228646  0.02756890     0.02400
C1435       C  0.33423286  0.23679931  0.15880248     0.12400
C1436       C  0.30660152  0.20975207  0.13798202     0.63000
H1437       H  0.29862903  0.20974292  0.04544599     0.12400
C1438       C  0.33733631  0.25369942  0.99003757     0.55100
H1439       H  0.34441384  0.25387377  0.08375770     0.08200
C1440       C  0.34551241  0.23408145  0.16978605    -0.05600
C1441       C  0.35124486  0.23700135  0.21645579    -0.06300
C1442       C  0.34645388  0.24299241  0.25188268    -0.15900
C1443       C  0.33550869  0.24625774  0.24008334    -0.01500
C1444       C  0.32950142  0.24293355  0.19363631    -0.09100
C1445       C  0.35176086  0.22852021  0.13200858     0.65200
H1446       H  0.35973242  0.23474951  0.22545281     0.10700
C1447       C  0.33051924  0.25369365  0.27522039     0.63600
H1448       H  0.32108553  0.24521421  0.18377798     0.08000
F1449       F  0.34964981  0.26519440  0.00894331    -0.19400
F1450       F  0.32891134  0.25894945  0.97157154    -0.15700
F1451       F  0.34155473  0.24786629  0.95352396    -0.19100
F1452       F  0.30253836  0.21535072  0.17559241    -0.22500
F1453       F  0.31549208  0.20492361  0.15529804    -0.24000
F1454       F  0.29433470  0.19802828  0.11984544    -0.18000
F1455       F  0.32089462  0.25709789  0.25437532    -0.20500
F1456       F  0.34222829  0.26634643  0.29107560    -0.21600
F1457       F  0.32370624  0.24481121  0.31392144    -0.18800
F1458       F  0.36212384  0.22586729  0.15100304    -0.18900
F1459       F  0.35812321  0.23861080  0.09599616    -0.22700
F1460       F  0.34105077  0.21586638  0.11232415    -0.24400
C1461       C  0.85069784  0.72457863  0.87176206    -0.11200
C1462       C  0.85237537  0.71248680  0.87406312     0.11400
C1463       C  0.84006013  0.69861999  0.87621216    -0.03000
C1464       C  0.82641193  0.69738848  0.87888181    -0.05700
C1465       C  0.82460453  0.70948333  0.87881998    -0.16500
C1466       C  0.83696994  0.72335522  0.87297869     0.02400
C1467       C  0.86707921  0.71450729  0.87836335     0.12400
C1468       C  0.84134245  0.68515069  0.87648880     0.63000
H1469       H  0.81698995  0.68682216  0.88204323     0.12400
C1470       C  0.83588569  0.73685340  0.86842629     0.55100
H1471       H  0.86031754  0.73504703  0.87005501     0.08200
C1472       C  0.87592990  0.71640632  0.83805805    -0.05600
C1473       C  0.88840854  0.71535272  0.84460915    -0.06300
C1474       C  0.89215520  0.71266372  0.89004994    -0.15900
C1475       C  0.88407979  0.71224173  0.93082353    -0.01500
C1476       C  0.87167031  0.71328789  0.92425781    -0.09100
C1477       C  0.87211337  0.71939343  0.78864212     0.65200
H1478       H  0.89499776  0.71604032  0.81412468     0.10700
C1479       C  0.88843927  0.71040814  0.98092895     0.63600
H1480       H  0.86494695  0.71230974  0.95473117     0.08000
F1481       F  0.84920679  0.74895888  0.86110716    -0.19400
F1482       F  0.83008386  0.73895490  0.90992311    -0.15700
F1483       F  0.82730050  0.73556323  0.82957645    -0.19100
F1484       F  0.84796056  0.68455656  0.91823095    -0.22500
F1485       F  0.84938974  0.68524106  0.83753966    -0.24000
F1486       F  0.82801989  0.67277341  0.87384855    -0.18000
F1487       F  0.90268658  0.72062080  0.98901624    -0.20500
F1488       F  0.88676352  0.69686529  0.98548667    -0.21600
F1489       F  0.88015532  0.71199079  0.01591670    -0.18800
F1490       F  0.88192488  0.72046259  0.75421128    -0.18900
F1491       F  0.87207765  0.73223104  0.78951535    -0.22700
F1492       F  0.85863529  0.70849478  0.77517496    -0.24400
C1493       C  0.74744257  0.76374860  0.96616843    -0.11200
C1494       C  0.74607069  0.75110070  0.98543655     0.11400
C1495       C  0.73735312  0.74485222  0.02643856    -0.03000
C1496       C  0.72930043  0.75089234  0.04454679    -0.05700
C1497       C  0.73013454  0.76324594  0.02419078    -0.16500
C1498       C  0.73966217  0.77004137  0.98489206     0.02400
C1499       C  0.75390995  0.74457178  0.96209735     0.12400
C1500       C  0.73678736  0.73200782  0.05135493     0.63000
H1501       H  0.72223209  0.74596243  0.07499592     0.12400
C1502       C  0.74132604  0.78355373  0.96153552     0.55100
H1503       H  0.75451150  0.76849456  0.93559490     0.08200
C1504       C  0.74761935  0.73423808  0.92513157    -0.05600
C1505       C  0.75484397  0.72707736  0.90929310    -0.06300
C1506       C  0.76824461  0.73018524  0.92836677    -0.15900
C1507       C  0.77514459  0.74160199  0.96211450    -0.01500
C1508       C  0.76774399  0.74855436  0.97845112    -0.09100
C1509       C  0.73323267  0.73064935  0.90317959     0.65200
H1510       H  0.74983573  0.71865685  0.88264733     0.10700
C1511       C  0.78992920  0.74612728  0.98258458     0.63600
H1512       H  0.77246293  0.75684870  0.00562676     0.08000
F1513       F  0.72809772  0.78112291  0.94544026    -0.19400
F1514       F  0.75058438  0.78782322  0.92256940    -0.15700
F1515       F  0.74689405  0.79469640  0.99438712    -0.19100
F1516       F  0.75037033  0.73567638  0.06762680    -0.22500
F1517       F  0.73211732  0.72058652  0.01993579    -0.24000
F1518       F  0.72754946  0.72751127  0.09036834    -0.18000
F1519       F  0.79448856  0.75748753  0.01439030    -0.20500
F1520       F  0.79992950  0.75049108  0.94583343    -0.21600
F1521       F  0.78956772  0.73475686  0.00698759    -0.18800
F1522       F  0.72954273  0.72107029  0.86539355    -0.18900
F1523       F  0.73390225  0.74301013  0.88583925    -0.22700
F1524       F  0.72246643  0.72458615  0.93732347    -0.24400
C1525       C  0.49335212  0.52587005  0.78204378    -0.11200
C1526       C  0.48202450  0.52563710  0.75636014     0.11400
C1527       C  0.48345361  0.53865618  0.73917123    -0.03000
C1528       C  0.49687798  0.55134256  0.74348688    -0.05700
C1529       C  0.50866926  0.55140912  0.76563686    -0.16500
C1530       C  0.50667639  0.53859496  0.78759859     0.02400
C1531       C  0.46913168  0.51146379  0.74579935     0.12400
C1532       C  0.47080238  0.53910392  0.71679274     0.63000
H1533       H  0.49835935  0.56126516  0.72838065     0.12400
C1534       C  0.51834138  0.53825563  0.81750892     0.55100
H1535       H  0.49180588  0.51582887  0.79633295     0.08200
C1536       C  0.46902671  0.50291901  0.70693965    -0.05600
C1537       C  0.45671356  0.48946892  0.69937338    -0.06300
C1538       C  0.44458869  0.48416668  0.72944315    -0.15900
C1539       C  0.44464935  0.49279387  0.76826898    -0.01500
C1540       C  0.45703511  0.50634322  0.77579218    -0.09100
C1541       C  0.48195052  0.50788761  0.67386781     0.65200
H1542       H  0.45656217  0.48281916  0.66990255     0.10700
C1543       C  0.43197944  0.48767357  0.80240301     0.63600
H1544       H  0.45746597  0.51304661  0.80551423     0.08000
F1545       F  0.51306003  0.52553587  0.84291079    -0.19400
F1546       F  0.52379409  0.54940124  0.85038403    -0.15700
F1547       F  0.52931697  0.53950918  0.78818095    -0.19100
F1548       F  0.46001072  0.53504463  0.75063136    -0.22500
F1549       F  0.46554173  0.52982835  0.67811464    -0.24000
F1550       F  0.47459834  0.55273781  0.70085898    -0.18000
F1551       F  0.43480800  0.49731893  0.83947956    -0.20500
F1552       F  0.42885062  0.47466819  0.82249520    -0.21600
F1553       F  0.42009792  0.48608677  0.77772025    -0.18800
F1554       F  0.47936650  0.49809573  0.63749852    -0.18900
F1555       F  0.49368417  0.50959111  0.69973734    -0.22700
F1556       F  0.48527863  0.52082640  0.65287600    -0.24400
C1557       C  0.57939847  0.68226557  0.64770437    -0.11200
C1558       C  0.58356521  0.67196769  0.63986792     0.11400
C1559       C  0.59507325  0.67514879  0.60800744    -0.03000
C1560       C  0.60289076  0.68905045  0.58841387    -0.05700
C1561       C  0.59926367  0.69969676  0.59802211    -0.16500
C1562       C  0.58695199  0.69610029  0.62695070     0.02400
C1563       C  0.57585456  0.65795468  0.66583773     0.12400
C1564       C  0.59895984  0.66382162  0.59436354     0.63000
H1565       H  0.61206716  0.69176130  0.56550910     0.12400
C1566       C  0.58191177  0.70678374  0.63696036     0.55100
H1567       H  0.57028642  0.67941177  0.67109318     0.08200
C1568       C  0.58037239  0.65598444  0.71154511    -0.05600
C1569       C  0.57384793  0.64202428  0.73123413    -0.06300
C1570       C  0.56242732  0.63020580  0.70803939    -0.15900
C1571       C  0.55720694  0.63245820  0.66388996    -0.01500
C1572       C  0.56414465  0.64632275  0.64339268    -0.09100
C1573       C  0.59192752  0.66864746  0.73944664     0.65200
H1574       H  0.57762321  0.64021966  0.76510467     0.10700
C1575       C  0.54473590  0.62022388  0.63743123     0.63600
H1576       H  0.56068144  0.64818013  0.60899191     0.08000
F1577       F  0.59270269  0.71887004  0.65924362    -0.19400
F1578       F  0.56994817  0.70107969  0.66662095    -0.15700
F1579       F  0.57823845  0.71067409  0.59427194    -0.19100
F1580       F  0.58748232  0.65266588  0.57074619    -0.22500
F1581       F  0.60209842  0.65852150  0.63491095    -0.24000
F1582       F  0.61081246  0.66926795  0.56423770    -0.18000
F1583       F  0.54194267  0.62465109  0.59413124    -0.20500
F1584       F  0.53241797  0.61482930  0.66517943    -0.21600
F1585       F  0.54785369  0.60943814  0.62796679    -0.18800
F1586       F  0.59462364  0.66448715  0.78340557    -0.18900
F1587       F  0.58748143  0.67851551  0.74778981    -0.22700
F1588       F  0.60464997  0.67521310  0.71369113    -0.24400
C1589       C  0.64490823  0.74880852  0.79256381    -0.11200
C1590       C  0.65954274  0.75336364  0.79693716     0.11400
C1591       C  0.66775659  0.75469021  0.75555488    -0.03000
C1592       C  0.66112028  0.75225478  0.71032700    -0.05700
C1593       C  0.64652782  0.74826739  0.70537045    -0.16500
C1594       C  0.63815420  0.74625183  0.74756109     0.02400
C1595       C  0.66594109  0.75681669  0.84565058     0.12400
C1596       C  0.68340455  0.75852001  0.75931731     0.63000
H1597       H  0.66737053  0.75346902  0.67834373     0.12400
C1598       C  0.62217785  0.74132240  0.74608272     0.55100
H1599       H  0.63886204  0.74749595  0.82517723     0.08200
C1600       C  0.66990612  0.77010825  0.86806501    -0.05600
C1601       C  0.67618491  0.77279035  0.91389135    -0.06300
C1602       C  0.67832791  0.76255389  0.93802063    -0.15900
C1603       C  0.67407248  0.74913157  0.91589601    -0.01500
C1604       C  0.66776177  0.74644538  0.87003004    -0.09100
C1605       C  0.66759566  0.78142139  0.84353226     0.65200
H1606       H  0.67949282  0.78297322  0.93141087     0.10700
C1607       C  0.67674248  0.73796074  0.93946357     0.63600
H1608       H  0.66432401  0.73625275  0.85241288     0.08000
F1609       F  0.61999640  0.75133294  0.72213122    -0.19400
F1610       F  0.61633122  0.73969129  0.79156197    -0.15700
F1611       F  0.61485865  0.72815998  0.72327408    -0.19100
F1612       F  0.68429045  0.74785190  0.78403966    -0.22500
F1613       F  0.69126519  0.77139615  0.78343263    -0.24000
F1614       F  0.68962037  0.75988089  0.71462367    -0.18000
F1615       F  0.67305720  0.72632615  0.90959413    -0.20500
F1616       F  0.66859574  0.73293402  0.98083644    -0.21600
F1617       F  0.69118272  0.74399776  0.95072926    -0.18800
F1618       F  0.67258118  0.79371292  0.87115957    -0.18900
F1619       F  0.65308376  0.77608049  0.83547533    -0.22700
F1620       F  0.67481524  0.78524130  0.80012435    -0.24400
C1621       C  0.66246397  0.74753122  0.25885017    -0.11200
C1622       C  0.67073725  0.75583947  0.29761274     0.11400
C1623       C  0.68520298  0.76665820  0.28986962    -0.03000
C1624       C  0.69063428  0.76934466  0.24257291    -0.05700
C1625       C  0.68212733  0.76154252  0.20300728    -0.16500
C1626       C  0.66781609  0.75018108  0.21149974     0.02400
C1627       C  0.66363010  0.75318084  0.34548046     0.12400
C1628       C  0.69483034  0.77529222  0.33139204     0.63000
H1629       H  0.70158324  0.77782465  0.23611024     0.12400
C1630       C  0.65807629  0.74083388  0.17130943     0.55100
H1631       H  0.65150881  0.73915693  0.26603441     0.08200
C1632       C  0.65486763  0.75910780  0.35790606    -0.05600
C1633       C  0.64794605  0.75573418  0.40288888    -0.06300
C1634       C  0.64944305  0.74662717  0.43554241    -0.15900
C1635       C  0.65796714  0.74043710  0.42265081    -0.01500
C1636       C  0.66495082  0.74386631  0.37761336    -0.09100
C1637       C  0.65265910  0.76877966  0.32340772     0.65200
H1638       H  0.64130802  0.76027752  0.41308595     0.10700
C1639       C  0.65919170  0.72980427  0.45528831     0.63600
H1640       H  0.67144257  0.73921166  0.36684513     0.08000
F1641       F  0.65445736  0.74891010  0.14200291    -0.19400
F1642       F  0.64541920  0.72941612  0.18871732    -0.15700
F1643       F  0.66500856  0.73521813  0.14469152    -0.19100
F1644       F  0.69638980  0.76620177  0.36269245    -0.22500
F1645       F  0.68884611  0.78224176  0.35580670    -0.24000
F1646       F  0.70840597  0.78557043  0.31590922    -0.18000
F1647       F  0.66640886  0.72368316  0.43325047    -0.20500
F1648       F  0.64558205  0.71885800  0.46760632    -0.21600
F1649       F  0.66666774  0.73666737  0.49642588    -0.18800
F1650       F  0.64466524  0.77427557  0.34395151    -0.18900
F1651       F  0.64542644  0.76105980  0.28307683    -0.22700
F1652       F  0.66578608  0.78022452  0.30966808    -0.24400
C1653       C  0.54137162  0.48316292  0.20644409    -0.11200
C1654       C  0.52781831  0.47918407  0.22592206     0.11400
C1655       C  0.52608382  0.48911262  0.25447166    -0.03000
C1656       C  0.53783284  0.50305288  0.26008004    -0.05700
C1657       C  0.55127577  0.50740555  0.23866342    -0.16500
C1658       C  0.55322319  0.49717755  0.21213259     0.02400
C1659       C  0.51534973  0.46477038  0.21465010     0.12400
C1660       C  0.51182407  0.48504692  0.27867781     0.63000
H1661       H  0.53652731  0.51076286  0.28133165     0.12400
C1662       C  0.56747895  0.50101354  0.18858849     0.55100
H1663       H  0.54246348  0.47523417  0.18571330     0.08200
C1664       C  0.50735021  0.46216085  0.17170389    -0.05600
C1665       C  0.49412930  0.44923434  0.16718767    -0.06300
C1666       C  0.48885900  0.43894901  0.20397224    -0.15900
C1667       C  0.49717730  0.44133675  0.24605007    -0.01500
C1668       C  0.51052293  0.45410969  0.25005086    -0.09100
C1669       C  0.51262001  0.47317692  0.13152740     0.65200
H1670       H  0.48759384  0.44720852  0.13538238     0.10700
C1671       C  0.49141173  0.43106609  0.28827422     0.63600
H1672       H  0.51690465  0.45632662  0.28233375     0.08000
F1673       F  0.57133274  0.51216501  0.15652210    -0.19400
F1674       F  0.56675968  0.48954091  0.16354293    -0.15700
F1675       F  0.57803306  0.50505517  0.22322667    -0.19100
F1676       F  0.50857631  0.47439267  0.31222509    -0.22500
F1677       F  0.50094524  0.48013043  0.24492329    -0.24000
F1678       F  0.51223576  0.49659279  0.30223277    -0.18000
F1679       F  0.50098952  0.43566330  0.32629451    -0.20500
F1680       F  0.48883824  0.41762524  0.27460797    -0.21600
F1681       F  0.47872963  0.43006766  0.30423944    -0.18800
F1682       F  0.50316377  0.46862591  0.09317859    -0.18900
F1683       F  0.52577907  0.47554041  0.11488869    -0.22700
F1684       F  0.51413667  0.48598325  0.14818662    -0.24400
C1685       C  0.56336979  0.55351622  0.47093685    -0.11200
C1686       C  0.56580023  0.56740481  0.47868839     0.11400
C1687       C  0.57076812  0.57745621  0.44062159    -0.03000
C1688       C  0.57292680  0.57304818  0.39530958    -0.05700
C1689       C  0.57041304  0.55906096  0.38726842    -0.16500
C1690       C  0.56531373  0.54899997  0.42564286     0.02400
C1691       C  0.56304786  0.57096449  0.52751387     0.12400
C1692       C  0.57383639  0.59274434  0.44787990     0.63000
H1693       H  0.57690481  0.58064438  0.36590728     0.12400
C1694       C  0.56164503  0.53349396  0.41932304     0.55100
H1695       H  0.55987353  0.54618077  0.50108999     0.08200
C1696       C  0.54891663  0.56619235  0.54423995    -0.05600
C1697       C  0.54708644  0.56972062  0.59120772    -0.06300
C1698       C  0.55882131  0.57755965  0.62214045    -0.15900
C1699       C  0.57296779  0.58193506  0.60575457    -0.01500
C1700       C  0.57478608  0.57847182  0.55845634    -0.09100
C1701       C  0.53581139  0.55731660  0.51281086     0.65200
H1702       H  0.53632586  0.56621580  0.60435334     0.10700
C1703       C  0.58610889  0.59044416  0.63722135     0.63600
H1704       H  0.58543260  0.58157167  0.54505420     0.08000
F1705       F  0.55468919  0.52523231  0.45922218    -0.19400
F1706       F  0.57411527  0.53292971  0.41237341    -0.15700
F1707       F  0.55258686  0.52744558  0.38037293    -0.19100
F1708       F  0.58466087  0.59966688  0.48135901    -0.22500
F1709       F  0.56156367  0.59260082  0.46391695    -0.24000
F1710       F  0.57822591  0.60061946  0.40576006    -0.18000
F1711       F  0.59878260  0.59423365  0.61290171    -0.20500
F1712       F  0.58544925  0.58228565  0.67649559    -0.21600
F1713       F  0.58664709  0.60294653  0.65257317    -0.18800
F1714       F  0.52318058  0.55474088  0.53500530    -0.18900
F1715       F  0.53462951  0.54417677  0.50280538    -0.22700
F1716       F  0.53708899  0.56445171  0.47024838    -0.24400
C1717       C  0.56485671  0.55840052  0.03921394    -0.11200
C1718       C  0.56925435  0.57292477  0.03174804     0.11400
C1719       C  0.57592410  0.58287441  0.06970734    -0.03000
C1720       C  0.57841029  0.57795573  0.11354058    -0.05700
C1721       C  0.57463891  0.56355398  0.12025019    -0.16500
C1722       C  0.56761496  0.55352064  0.08265039     0.02400
C1723       C  0.56673831  0.57733163  0.98360378     0.12400
C1724       C  0.58034875  0.59859761  0.06406725     0.63000
H1725       H  0.58345573  0.58538914  0.14301248     0.12400
C1726       C  0.56279921  0.53770004  0.08846178     0.55100
H1727       H  0.55941504  0.55092429  0.01015605     0.08200
C1728       C  0.57518030  0.57834066  0.94309106    -0.05600
C1729       C  0.57177747  0.58194515  0.89831226    -0.06300
C1730       C  0.56042281  0.58483599  0.89268290    -0.15900
C1731       C  0.55233814  0.58436991  0.93402984    -0.01500
C1732       C  0.55549707  0.58029694  0.97846360    -0.09100
C1733       C  0.58782694  0.57574306  0.94721102     0.65200
H1734       H  0.57797871  0.58239358  0.86701396     0.10700
C1735       C  0.54031525  0.58794021  0.93196919     0.63600
H1736       H  0.54908086  0.57923861  0.00986347     0.08000
F1737       F  0.55485544  0.52965460  0.04947074    -0.19400
F1738       F  0.55429561  0.53229214  0.12901130    -0.15700
F1739       F  0.57471088  0.53602265  0.09265401    -0.19100
F1740       F  0.56823041  0.59992409  0.05992142    -0.22500
F1741       F  0.58879005  0.60422446  0.02353604    -0.24000
F1742       F  0.58817743  0.60669484  0.10312079    -0.18000
F1743       F  0.53461700  0.58757897  0.97692401    -0.20500
F1744       F  0.52927460  0.57809484  0.90319163    -0.21600
F1745       F  0.54556546  0.60164720  0.91389556    -0.18800
F1746       F  0.59529154  0.57838351  0.90437292    -0.18900
F1747       F  0.58303110  0.56164148  0.95987470    -0.22700
F1748       F  0.59730971  0.58472876  0.98174534    -0.24400
C1749       C  0.79089681  0.61214207  0.38868051    -0.11200
C1750       C  0.80111765  0.61988005  0.42431678     0.11400
C1751       C  0.79812154  0.62770161  0.45890203    -0.03000
C1752       C  0.78515984  0.62797775  0.45529282    -0.05700
C1753       C  0.77510456  0.62065647  0.41862129    -0.16500
C1754       C  0.77781736  0.61225520  0.38542620     0.02400
C1755       C  0.81559648  0.62118817  0.42065338     0.12400
C1756       C  0.80879634  0.63612373  0.49850239     0.63000
H1757       H  0.78295844  0.63432616  0.48047285     0.12400
C1758       C  0.76727642  0.60390995  0.34561658     0.55100
H1759       H  0.79349660  0.60636025  0.36238037     0.08200
C1760       C  0.81873090  0.61078562  0.43902638    -0.05600
C1761       C  0.83297795  0.61337921  0.43561403    -0.06300
C1762       C  0.84399194  0.62581281  0.41348548    -0.15900
C1763       C  0.84050439  0.63572217  0.39224364    -0.01500
C1764       C  0.82637034  0.63323429  0.39671477    -0.09100
C1765       C  0.80704844  0.59694814  0.46134107     0.65200
H1766       H  0.83563415  0.60569695  0.45048651     0.10700
C1767       C  0.85142441  0.64872013  0.36383774     0.63600
H1768       H  0.82356935  0.64081058  0.38176847     0.08000
F1769       F  0.77254347  0.59741148  0.31520127    -0.19400
F1770       F  0.76453642  0.61302779  0.31840162    -0.15700
F1771       F  0.75456473  0.59327451  0.36544246    -0.19100
F1772       F  0.82121209  0.64724619  0.47886874    -0.22500
F1773       F  0.81227171  0.62724919  0.52389360    -0.24000
F1774       F  0.80324523  0.64193234  0.53068028    -0.18000
F1775       F  0.84506441  0.65543766  0.34020131    -0.20500
F1776       F  0.85792697  0.64452377  0.32950889    -0.21600
F1777       F  0.86174903  0.65865755  0.39443228    -0.18800
F1778       F  0.81243506  0.58842675  0.47786502    -0.18900
F1779       F  0.79658791  0.58918045  0.42749489    -0.22700
F1780       F  0.80077803  0.59994231  0.49964179    -0.24400
C1781       C  0.67302779  0.58653091  0.38330542    -0.11200
C1782       C  0.66874581  0.59155779  0.34369562     0.11400
C1783       C  0.67909859  0.60408591  0.31948997    -0.03000
C1784       C  0.69349780  0.61096637  0.33518343    -0.05700
C1785       C  0.69794664  0.60578703  0.37404138    -0.16500
C1786       C  0.68751047  0.59337914  0.39885149     0.02400
C1787       C  0.65332645  0.58367104  0.32841039     0.12400
C1788       C  0.67495421  0.61017856  0.27716724     0.63000
H1789       H  0.70149962  0.62052039  0.31678600     0.12400
C1790       C  0.69150302  0.58759767  0.44220408     0.55100
H1791       H  0.66487689  0.57711572  0.40189785     0.08200
C1792       C  0.64749887  0.57101369  0.30019867    -0.05600
C1793       C  0.63322062  0.56492054  0.28346493    -0.06300
C1794       C  0.62465944  0.57108447  0.29385798    -0.15900
C1795       C  0.63033461  0.58343547  0.32396585    -0.01500
C1796       C  0.64456807  0.58941357  0.34092521    -0.09100
C1797       C  0.65632788  0.56396829  0.28794828     0.65200
H1798       H  0.62864351  0.55529132  0.26166979     0.10700
C1799       C  0.62144197  0.59022477  0.33903732     0.63600
H1800       H  0.64915816  0.59889901  0.36343525     0.08000
F1801       F  0.70046713  0.58245785  0.42826442    -0.19400
F1802       F  0.67949836  0.57646203  0.46398986    -0.15700
F1803       F  0.69845733  0.59840580  0.47577126    -0.19100
F1804       F  0.66570910  0.61485824  0.29223806    -0.22500
F1805       F  0.66821803  0.59974486  0.24232143    -0.24000
F1806       F  0.68683722  0.62172309  0.25642376    -0.18000
F1807       F  0.62848617  0.60094614  0.37288301    -0.20500
F1808       F  0.60854865  0.57993932  0.35900664    -0.21600
F1809       F  0.61874467  0.59629924  0.29956753    -0.18800
F1810       F  0.64897755  0.55231346  0.25762665    -0.18900
F1811       F  0.65955910  0.55916132  0.32950450    -0.22700
F1812       F  0.66898222  0.57373051  0.26544832    -0.24400
C1813       C  0.75278676  0.66913160  0.59226606    -0.11200
C1814       C  0.75365479  0.66133701  0.63110281     0.11400
C1815       C  0.75034064  0.64697193  0.62419499    -0.03000
C1816       C  0.74685230  0.64106108  0.57768423    -0.05700
C1817       C  0.74673203  0.64907321  0.53790817    -0.16500
C1818       C  0.74957517  0.66336886  0.54545392     0.02400
C1819       C  0.75848401  0.66864770  0.67843839     0.12400
C1820       C  0.75071053  0.63802730  0.66579034     0.63000
H1821       H  0.74458680  0.63016868  0.57188791     0.12400
C1822       C  0.74941013  0.67266824  0.50471167     0.55100
H1823       H  0.75515115  0.68002909  0.59883342     0.08200
C1824       C  0.77325420  0.67778900  0.68901840    -0.05600
C1825       C  0.77710941  0.68406408  0.73489151    -0.06300
C1826       C  0.76674937  0.68132759  0.77042581    -0.15900
C1827       C  0.75195599  0.67229143  0.75967613    -0.01500
C1828       C  0.74807308  0.66625715  0.71336117    -0.09100
C1829       C  0.78488917  0.68085112  0.65206085     0.65200
H1830       H  0.78835188  0.69106002  0.74368170     0.10700
C1831       C  0.74032907  0.66925186  0.79649841     0.63600
H1832       H  0.73684338  0.65938879  0.70416156     0.08000
F1833       F  0.75080155  0.68545235  0.52123819    -0.19400
F1834       F  0.73653773  0.66545456  0.47996992    -0.15700
F1835       F  0.76076573  0.67602509  0.47380500    -0.19100
F1836       F  0.74071961  0.63648842  0.70011215    -0.22500
F1837       F  0.76424300  0.64467314  0.68637097    -0.24000
F1838       F  0.74751845  0.62443920  0.65120875    -0.18000
F1839       F  0.72667264  0.66156540  0.77694808    -0.20500
F1840       F  0.74203940  0.68203884  0.81424355    -0.21600
F1841       F  0.74122704  0.66127651  0.83382002    -0.18800
F1842       F  0.79855672  0.68961382  0.67035486    -0.18900
F1843       F  0.78319030  0.68767590  0.61273401    -0.22700
F1844       F  0.78400752  0.66815963  0.63726631    -0.24400
C1845       C  0.75428705  0.66710269  0.20959482    -0.11200
C1846       C  0.76111867  0.66247054  0.17714745     0.11400
C1847       C  0.76467478  0.65201585  0.19175646    -0.03000
C1848       C  0.76082070  0.64620765  0.23827437    -0.05700
C1849       C  0.75388038  0.65073564  0.27091762    -0.16500
C1850       C  0.75054748  0.66142207  0.25638446     0.02400
C1851       C  0.76482143  0.66912358  0.12852845     0.12400
C1852       C  0.77250716  0.64701661  0.15833811     0.63000
H1853       H  0.76338393  0.63813018  0.24977858     0.12400
C1854       C  0.74284443  0.66667461  0.28934553     0.55100
H1855       H  0.75196363  0.67532357  0.19781316     0.08200
C1856       C  0.75453113  0.66486149  0.09124392    -0.05600
C1857       C  0.75894824  0.67154477  0.04605908    -0.06300
C1858       C  0.77317558  0.68251351  0.03730916    -0.15900
C1859       C  0.78346737  0.68678523  0.07498611    -0.01500
C1860       C  0.77899345  0.68006574  0.12008626    -0.09100
C1861       C  0.73887648  0.65357522  0.09948361     0.65200
H1862       H  0.75115033  0.66846935  0.01738325     0.10700
C1863       C  0.79917693  0.69812441  0.06792959     0.63600
H1864       H  0.78657216  0.68330691  0.14951881     0.08000
F1865       F  0.73952544  0.67603925  0.26620792    -0.19400
F1866       F  0.75155307  0.67387255  0.32803779    -0.15700
F1867       F  0.73009208  0.65514245  0.30550459    -0.19100
F1868       F  0.78596433  0.65839953  0.14724922    -0.22500
F1869       F  0.76472535  0.64160050  0.11648940    -0.24000
F1870       F  0.77439277  0.63636344  0.17895550    -0.18000
F1871       F  0.80037563  0.71143082  0.06154419    -0.20500
F1872       F  0.80470528  0.69475030  0.02829152    -0.21600
F1873       F  0.80751699  0.69905573  0.10714615    -0.18800
F1874       F  0.73103978  0.64985304  0.05724801    -0.18900
F1875       F  0.73267421  0.65885638  0.13100540    -0.22700
F1876       F  0.73791281  0.64126205  0.11856130    -0.24400
C1877       C  0.63769152  0.82988934  0.60084747    -0.11200
C1878       C  0.62870155  0.82033459  0.56561160     0.11400
C1879       C  0.62110621  0.82455630  0.53431037    -0.03000
C1880       C  0.62338139  0.83862475  0.53794495    -0.05700
C1881       C  0.63297195  0.84848738  0.57167846    -0.16500
C1882       C  0.64011556  0.84398058  0.60434615     0.02400
C1883       C  0.62792054  0.80615104  0.56180271     0.12400
C1884       C  0.61066207  0.81423345  0.49736874     0.63000
H1885       H  0.61781737  0.84210922  0.51386199     0.12400
C1886       C  0.65010380  0.85379950  0.64332298     0.55100
H1887       H  0.64311324  0.82625555  0.62500439     0.08200
C1888       C  0.63915999  0.80477408  0.54045062    -0.05600
C1889       C  0.63821599  0.79125316  0.54055839    -0.06300
C1890       C  0.62651586  0.77914462  0.56143968    -0.15900
C1891       C  0.61518818  0.78050482  0.58250896    -0.01500
C1892       C  0.61614909  0.79408112  0.58237021    -0.09100
C1893       C  0.65227069  0.81760702  0.51858405     0.65200
H1894       H  0.64682668  0.79008660  0.52491817     0.10700
C1895       C  0.60251020  0.76793544  0.60706585     0.63600
H1896       H  0.60784201  0.79549017  0.59928055     0.08000
F1897       F  0.66247101  0.86477357  0.62284526    -0.19400
F1898       F  0.65417980  0.84653588  0.67484987    -0.15700
F1899       F  0.64323842  0.85952421  0.66967056    -0.19100
F1900       F  0.59928197  0.80282083  0.52043885    -0.22500
F1901       F  0.61753096  0.80909368  0.46822402    -0.24000
F1902       F  0.60512960  0.82076459  0.46841020    -0.18000
F1903       F  0.59327327  0.77189562  0.62782267    -0.20500
F1904       F  0.60743841  0.76258361  0.64287820    -0.21600
F1905       F  0.59470488  0.75723854  0.57396220    -0.18800
F1906       F  0.66106597  0.81359057  0.49489466    -0.18900
F1907       F  0.66030544  0.82722421  0.55428430    -0.22700
F1908       F  0.64800954  0.82439313  0.48582533    -0.24400
C1909       C  0.57427065  0.92091719  0.64882440    -0.11200
C1910       C  0.58741512  0.92386661  0.66910684     0.11400
C1911       C  0.59350159  0.93419775  0.70626707    -0.03000
C1912       C  0.58615729  0.94131155  0.72165240    -0.05700
C1913       C  0.57306832  0.93860041  0.70087094    -0.16500
C1914       C  0.56692123  0.92806398  0.66395211     0.02400
C1915       C  0.59513153  0.91686629  0.64768470     0.12400
C1916       C  0.60788113  0.93796115  0.72873380     0.63000
H1917       H  0.59082386  0.94937991  0.74954199     0.12400
C1918       C  0.55300615  0.92469448  0.63900433     0.55100
H1919       H  0.56998458  0.91313655  0.61996136     0.08200
C1920       C  0.59218616  0.90295601  0.66109696    -0.05600
C1921       C  0.60046912  0.89743473  0.64052720    -0.06300
C1922       C  0.61137479  0.90529124  0.60665132    -0.15900
C1923       C  0.61353998  0.91878545  0.59080452    -0.01500
C1924       C  0.60537006  0.92432675  0.61181611    -0.09100
C1925       C  0.58030629  0.89400629  0.69673904     0.65200
H1926       H  0.59872871  0.88705028  0.65179916     0.10700
C1927       C  0.62428558  0.92731081  0.55154508     0.63600
H1928       H  0.60711273  0.93475561  0.60103758     0.08000
F1929       F  0.54183029  0.91914317  0.67181897    -0.19400
F1930       F  0.54946421  0.91466712  0.60270514    -0.15700
F1931       F  0.55437342  0.93705384  0.61872318    -0.19100
F1932       F  0.61860184  0.94363881  0.69432798    -0.22500
F1933       F  0.60723227  0.92581650  0.74797258    -0.24000
F1934       F  0.61166392  0.94798149  0.76517036    -0.18000
F1935       F  0.62254523  0.91844099  0.51302824    -0.20500
F1936       F  0.63815276  0.93322990  0.56907699    -0.21600
F1937       F  0.62243308  0.93839892  0.53484610    -0.18800
F1938       F  0.57938589  0.88090897  0.70563557    -0.18900
F1939       F  0.56721254  0.89137744  0.67870398    -0.22700
F1940       F  0.58280303  0.90121834  0.73988079    -0.24400
C1941       C  0.57818687  0.99737284  0.42193617    -0.11200
C1942       C  0.58171553  0.00671866  0.46116130     0.11400
C1943       C  0.58837884  0.02167079  0.45321986    -0.03000
C1944       C  0.59016832  0.02666006  0.40576867    -0.05700
C1945       C  0.58558738  0.01726977  0.36610784    -0.16500
C1946       C  0.57998886  0.00233778  0.37421025     0.02400
C1947       C  0.57788231  0.00040588  0.51004204     0.12400
C1948       C  0.59323963  0.03230877  0.49457466     0.63000
H1949       H  0.59493088  0.03807399  0.39945792     0.12400
C1950       C  0.57564548  0.99157602  0.33343119     0.55100
H1951       H  0.57355148  0.98601721  0.42927775     0.08200
C1952       C  0.56376598  0.99475145  0.52852233    -0.05600
C1953       C  0.56073287  0.98868127  0.57469696    -0.06300
C1954       C  0.57124266  0.98792098  0.60236818    -0.15900
C1955       C  0.58524533  0.99315554  0.58327255    -0.01500
C1956       C  0.58835167  0.99941964  0.53723175    -0.09100
C1957       C  0.55187260  0.99481168  0.49911198     0.65200
H1958       H  0.55000841  0.98429419  0.58945930     0.10700
C1959       C  0.59657332  0.99142932  0.61023263     0.63600
H1960       H  0.59895048  0.00346230  0.52171963     0.08000
F1961       F  0.56476684  0.99156871  0.30686034    -0.19400
F1962       F  0.57064320  0.97773765  0.35003871    -0.15700
F1963       F  0.58740296  0.99512292  0.30425597    -0.19100
F1964       F  0.60272274  0.03060988  0.52355306    -0.22500
F1965       F  0.58146595  0.03005581  0.52152099    -0.24000
F1966       F  0.60018449  0.04639284  0.47859037    -0.18000
F1967       F  0.59114352  0.97713939  0.62214154    -0.20500
F1968       F  0.60044710  0.99961314  0.65163294    -0.21600
F1969       F  0.60887128  0.99578370  0.58296728    -0.18800
F1970       F  0.53914105  0.98938780  0.52475260    -0.18900
F1971       F  0.54921908  0.98642068  0.45860208    -0.22700
F1972       F  0.55589789  0.00866137  0.48531300    -0.24400
C1973       C  0.57742352  0.01615868  0.01484644    -0.11200
C1974       C  0.58138301  0.00566625  0.00815447     0.11400
C1975       C  0.58863177  0.00289425  0.04533993    -0.03000
C1976       C  0.59060175  0.00993482  0.08976760    -0.05700
C1977       C  0.58636731  0.02024123  0.09699666    -0.16500
C1978       C  0.57997022  0.02369544  0.05850160     0.02400
C1979       C  0.57793542  0.99795672  0.96130432     0.12400
C1980       C  0.59459651  0.99286739  0.03755373     0.63000
H1981       H  0.59572962  0.00762269  0.11913480     0.12400
C1982       C  0.57558361  0.03505495  0.06352105     0.55100
H1983       H  0.57228076  0.01837849  0.98529569     0.08200
C1984       C  0.56434151  0.98571238  0.95215169    -0.05600
C1985       C  0.56156311  0.97942228  0.90612339    -0.06300
C1986       C  0.57172756  0.98524114  0.86874719    -0.15900
C1987       C  0.58545780  0.99738446  0.87841415    -0.01500
C1988       C  0.58827055  0.00352492  0.92468264    -0.09100
C1989       C  0.55265579  0.97965435  0.99038770     0.65200
H1990       H  0.55113120  0.97019245  0.89843124     0.10700
C1991       C  0.59720199  0.00383963  0.84053221     0.63600
H1992       H  0.59852875  0.01297851  0.93251655     0.08000
F1993       F  0.56828266  0.03564527  0.02344823    -0.19400
F1994       F  0.58773497  0.04839890  0.06923846    -0.15700
F1995       F  0.56663547  0.03207284  0.10284096    -0.19100
F1996       F  0.60490565  0.99831367  0.00174514    -0.22500
F1997       F  0.58374319  0.97939116  0.02408572    -0.24000
F1998       F  0.60096466  0.99138322  0.07866294    -0.18000
F1999       F  0.59349478  0.01052902  0.80561604    -0.20500
F2000       F  0.59906620  0.99317920  0.81979625    -0.21600
F2001       F  0.61028065  0.01397360  0.85984534    -0.18800
F2002       F  0.54050731  0.96729446  0.97499410    -0.18900
F2003       F  0.54867807  0.98970333  0.00181427    -0.22700
F2004       F  0.55762434  0.97630957  0.03132084    -0.24400
C2005       C  0.81943691  0.20546440  0.39686774    -0.11200
C2006       C  0.81784289  0.19326601  0.42064252     0.11400
C2007       C  0.82986204  0.19376934  0.44340344    -0.03000
C2008       C  0.84324156  0.20649506  0.44062460    -0.05700
C2009       C  0.84511165  0.21860059  0.41510919    -0.16500
C2010       C  0.83290226  0.21822069  0.39363936     0.02400
C2011       C  0.80415644  0.17947008  0.41476297     0.12400
C2012       C  0.82871409  0.18070014  0.46873791     0.63000
H2013       H  0.85254529  0.20688798  0.45722430     0.12400
C2014       C  0.83406438  0.23085133  0.36560328     0.55100
H2015       H  0.81009458  0.20466662  0.37908770     0.08200
C2016       C  0.79220551  0.17492913  0.44587067    -0.05600
C2017       C  0.78039955  0.16088929  0.44055225    -0.06300
C2018       C  0.78029265  0.15154125  0.40501146    -0.15900
C2019       C  0.79174336  0.15665171  0.37134831    -0.01500
C2020       C  0.80349483  0.17057632  0.37695375    -0.09100
C2021       C  0.79195071  0.18486590  0.48413322     0.65200
H2022       H  0.77135122  0.15695966  0.46500138     0.10700
C2023       C  0.79154397  0.14759321  0.32916329     0.63600
H2024       H  0.81259702  0.17450420  0.35270330     0.08000
F2025       F  0.83879180  0.24263365  0.39549135    -0.19400
F2026       F  0.82094026  0.22792017  0.34667288    -0.15700
F2027       F  0.84362201  0.23413839  0.32791232    -0.19100
F2028       F  0.82536414  0.16982044  0.43594664    -0.22500
F2029       F  0.81809489  0.17582444  0.50343532    -0.24000
F2030       F  0.84147344  0.18380106  0.49103459    -0.18000
F2031       F  0.80221955  0.15562846  0.29607423    -0.20500
F2032       F  0.77845190  0.14183540  0.30579944    -0.21600
F2033       F  0.79370281  0.13665116  0.34516702    -0.18800
F2034       F  0.77917191  0.17843307  0.50976583    -0.18900
F2035       F  0.79341466  0.19712611  0.46280154    -0.22700
F2036       F  0.80311874  0.18873388  0.51613232    -0.24400
C2037       C  0.65174430  0.08186534  0.32180386    -0.11200
C2038       C  0.66164088  0.07783669  0.30621825     0.11400
C2039       C  0.65741462  0.06683602  0.27149798    -0.03000
C2040       C  0.64338292  0.06042892  0.25258274    -0.05700
C2041       C  0.63328070  0.06424238  0.26851254    -0.16500
C2042       C  0.63751526  0.07512788  0.30418070     0.02400
C2043       C  0.67615755  0.08475008  0.32876738     0.12400
C2044       C  0.66751513  0.06148958  0.25597845     0.63000
H2045       H  0.64002039  0.05193876  0.22623141     0.12400
C2046       C  0.62699077  0.07915294  0.32573215     0.55100
H2047       H  0.65520749  0.09011584  0.34909615     0.08200
C2048       C  0.68771444  0.09786827  0.31182775    -0.05600
C2049       C  0.70150840  0.10289853  0.33156536    -0.06300
C2050       C  0.70403418  0.09525664  0.36760516    -0.15900
C2051       C  0.69215548  0.08268482  0.38704451    -0.01500
C2052       C  0.67839160  0.07768677  0.36715066    -0.09100
C2053       C  0.68545844  0.10638960  0.27277743     0.65200
H2054       H  0.71054912  0.11265617  0.31772502     0.10700
C2055       C  0.69385414  0.07445962  0.42836121     0.63600
H2056       H  0.66926840  0.06786175  0.38028795     0.08000
F2057       F  0.62222483  0.08485586  0.29062251    -0.19400
F2058       F  0.63322313  0.08930104  0.36180675    -0.15700
F2059       F  0.61539649  0.06710950  0.34546365    -0.19100
F2060       F  0.67026126  0.05513203  0.29451071    -0.22500
F2061       F  0.68036624  0.07279479  0.23958049    -0.24000
F2062       F  0.66167624  0.05142536  0.21952220    -0.18000
F2063       F  0.70172128  0.08382585  0.46493963    -0.20500
F2064       F  0.70080213  0.06731414  0.41250125    -0.21600
F2065       F  0.68067237  0.06437322  0.44722399    -0.18800
F2066       F  0.69816161  0.11868415  0.26064381    -0.18900
F2067       F  0.67580578  0.11047645  0.28854096    -0.22700
F2068       F  0.68005702  0.09810384  0.23188667    -0.24400
C2069       C  0.85297155  0.12595259  0.86559631    -0.11200
C2070       C  0.85460941  0.13800581  0.89059599     0.11400
C2071       C  0.84288900  0.13709958  0.91685975    -0.03000
C2072       C  0.82979640  0.12405761  0.91682898    -0.05700
C2073       C  0.82798512  0.11189111  0.89174790    -0.16500
C2074       C  0.83987817  0.11276284  0.86609213     0.02400
C2075       C  0.86839305  0.15177410  0.88610007     0.12400
C2076       C  0.84416328  0.14985512  0.94483923     0.63000
H2077       H  0.82076399  0.12330940  0.93667887     0.12400
C2078       C  0.83884606  0.10006427  0.83871576     0.55100
H2079       H  0.86208252  0.12704910  0.84527635     0.08200
C2080       C  0.88057605  0.15509793  0.91466378    -0.05600
C2081       C  0.89269751  0.16897436  0.91151304    -0.06300
C2082       C  0.89278928  0.17947611  0.88143138    -0.15900
C2083       C  0.88092468  0.17583674  0.85071873    -0.01500
C2084       C  0.86896824  0.16189223  0.85319054    -0.09100
C2085       C  0.88063691  0.14414652  0.94886748     0.65200
H2086       H  0.90196424  0.17194534  0.93418494     0.10700
C2087       C  0.88091483  0.18653480  0.81513259     0.63600
H2088       H  0.85964558  0.15891577  0.83078754     0.08000
F2089       F  0.83598740  0.08903845  0.87029671    -0.19400
F2090       F  0.85153684  0.10357144  0.81494976    -0.15700
F2091       F  0.82800284  0.09537728  0.80485519    -0.19100
F2092       F  0.84713953  0.16105779  0.91399994    -0.22500
F2093       F  0.85509260  0.15439201  0.97823745    -0.24000
F2094       F  0.83158178  0.14644282  0.96916002    -0.18000
F2095       F  0.86910802  0.18018912  0.78489972    -0.20500
F2096       F  0.89320378  0.19214712  0.78709982    -0.21600
F2097       F  0.88049351  0.19755967  0.83924349    -0.18800
F2098       F  0.89349703  0.14966856  0.97369002    -0.18900
F2099       F  0.87871536  0.13227351  0.92342259    -0.22700
F2100       F  0.86964626  0.13987568  0.98201735    -0.24400
C2101       C  0.75422744  0.08060360  0.70992405    -0.11200
C2102       C  0.76491814  0.08884140  0.67608480     0.11400
C2103       C  0.77957873  0.09414840  0.68797866    -0.03000
C2104       C  0.78299142  0.09090911  0.73342218    -0.05700
C2105       C  0.77230503  0.08256166  0.76718888    -0.16500
C2106       C  0.75762387  0.07708451  0.75500155     0.02400
C2107       C  0.76046745  0.09169126  0.62834365     0.12400
C2108       C  0.79157736  0.10306022  0.65261789     0.63000
H2109       H  0.79414575  0.09501825  0.74319068     0.12400
C2110       C  0.74556358  0.06696169  0.78822065     0.55100
H2111       H  0.74311100  0.07679796  0.70040851     0.08200
C2112       C  0.75482573  0.08119829  0.59146722    -0.05600
C2113       C  0.75157005  0.08492316  0.54652184    -0.06300
C2114       C  0.75367214  0.09869845  0.53738671    -0.15900
C2115       C  0.75931321  0.10919399  0.57449033    -0.01500
C2116       C  0.76229752  0.10535113  0.61964201    -0.09100
C2117       C  0.75235228  0.06615763  0.59947284     0.65200
H2118       H  0.74729972  0.07703484  0.51797728     0.10700
C2119       C  0.76290255  0.12460420  0.56606233     0.63600
H2120       H  0.76640445  0.11312622  0.64855051     0.08000
F2121       F  0.73220818  0.06132935  0.76659510    -0.19400
F2122       F  0.74545039  0.07417737  0.82916371    -0.15700
F2123       F  0.74753672  0.05561393  0.80076915    -0.19100
F2124       F  0.79191357  0.11583994  0.64323734    -0.22500
F2125       F  0.78932405  0.09554273  0.61020260    -0.24000
F2126       F  0.80494514  0.10634455  0.67021213    -0.18000
F2127       F  0.75039895  0.12506885  0.55878352    -0.20500
F2128       F  0.77175805  0.13015186  0.52631549    -0.21600
F2129       F  0.77002502  0.13337418  0.60479545    -0.18800
F2130       F  0.74776091  0.05794429  0.55808399    -0.18900
F2131       F  0.74192772  0.05925481  0.63427402    -0.22700
F2132       F  0.76499072  0.06685778  0.61417988    -0.24400
C2133       C  0.76204576  0.09213146  0.08807656    -0.11200
C2134       C  0.76824082  0.08934005  0.12790743     0.11400
C2135       C  0.77746481  0.08364375  0.12086437    -0.03000
C2136       C  0.78057783  0.08137959  0.07364046    -0.05700
C2137       C  0.77455253  0.08431115  0.03333179    -0.16500
C2138       C  0.76504955  0.08978514  0.04067456     0.02400
C2139       C  0.76482137  0.09248239  0.17668884     0.12400
C2140       C  0.78384747  0.07981294  0.16313180     0.63000
H2141       H  0.78766857  0.07706266  0.06796009     0.12400
C2142       C  0.75823077  0.09337692  0.99915750     0.55100
H2143       H  0.75483468  0.09626695  0.09464578     0.08200
C2144       C  0.77173575  0.10658272  0.19567261    -0.05600
C2145       C  0.76769138  0.10880997  0.24150147    -0.06300
C2146       C  0.75738540  0.09743122  0.26951594    -0.15900
C2147       C  0.75082438  0.08323113  0.25110007    -0.01500
C2148       C  0.75441823  0.08108270  0.20427290    -0.09100
C2149       C  0.78344436  0.11920423  0.16791157     0.65200
H2150       H  0.77270954  0.11955849  0.25612466     0.10700
C2151       C  0.74001125  0.07043356  0.28024329     0.63600
H2152       H  0.74924049  0.07040925  0.18882274     0.08000
F2153       F  0.76884500  0.10314076  0.96885759    -0.19400
F2154       F  0.75016671  0.09941451  0.01468551    -0.15700
F2155       F  0.74914669  0.08100109  0.97403368    -0.19100
F2156       F  0.77294877  0.06886704  0.18936979    -0.22500
F2157       F  0.79137497  0.09162931  0.19253134    -0.24000
F2158       F  0.79320717  0.07521263  0.14840540    -0.18000
F2159       F  0.73429811  0.05777659  0.25422799    -0.20500
F2160       F  0.72877123  0.07242826  0.29444363    -0.21600
F2161       F  0.74670843  0.06889392  0.32031094    -0.18800
F2162       F  0.78917846  0.13185394  0.19398140    -0.18900
F2163       F  0.77789544  0.12118821  0.12577132    -0.22700
F2164       F  0.79452421  0.11661866  0.15705995    -0.24400
C2165       C  0.72364031  0.87057458  0.05853338    -0.11200
C2166       C  0.71384611  0.85943199  0.08823606     0.11400
C2167       C  0.70527911  0.86198828  0.12094296    -0.03000
C2168       C  0.70563573  0.87522798  0.11895345    -0.05700
C2169       C  0.71493345  0.88621674  0.08764502    -0.16500
C2170       C  0.72457956  0.88412895  0.05834400     0.02400
C2171       C  0.71241182  0.84502126  0.08326549     0.12400
C2172       C  0.69597338  0.85083704  0.15808872     0.63000
H2173       H  0.69864439  0.87714051  0.14211222     0.12400
C2174       C  0.73563863  0.89598708  0.02658137     0.55100
H2175       H  0.73042096  0.86846027  0.03502664     0.08200
C2176       C  0.70294541  0.83495302  0.04926228    -0.05600
C2177       C  0.70143868  0.82120460  0.04813800    -0.06300
C2178       C  0.70920646  0.81730116  0.07924777    -0.15900
C2179       C  0.71897587  0.82754208  0.11252990    -0.01500
C2180       C  0.72044654  0.84132547  0.11368597    -0.09100
C2181       C  0.69450737  0.83874805  0.01423347     0.65200
H2182       H  0.69415673  0.81334809  0.02253529     0.10700
C2183       C  0.72739292  0.82385433  0.14787484     0.63600
H2184       H  0.72773619  0.84931899  0.13892483     0.08000
F2185       F  0.72894079  0.90095658  0.99607431    -0.19400
F2186       F  0.74318589  0.89129534  0.99872160    -0.15700
F2187       F  0.74543956  0.90715896  0.05500589    -0.19100
F2188       F  0.70460932  0.84808208  0.18785634    -0.22500
F2189       F  0.68609001  0.83821712  0.13586580    -0.24000
F2190       F  0.68849026  0.85549705  0.18639977    -0.18000
F2191       F  0.73703891  0.82118576  0.12340728    -0.20500
F2192       F  0.71802524  0.81183541  0.17409814    -0.21600
F2193       F  0.73514358  0.83494388  0.17988738    -0.18800
F2194       F  0.68569191  0.82727727  0.98487994    -0.18900
F2195       F  0.70392922  0.84998208  0.98527116    -0.22700
F2196       F  0.68591382  0.84278466  0.03896375    -0.24400
C2197       C  0.68313779  0.90201905  0.86506280    -0.11200
C2198       C  0.67509029  0.90868356  0.85500575     0.11400
C2199       C  0.67347152  0.91720898  0.89043323    -0.03000
C2200       C  0.68016927  0.91883702  0.93524821    -0.05700
C2201       C  0.68872405  0.91261008  0.94484656    -0.16500
C2202       C  0.69039344  0.90415550  0.90889219     0.02400
C2203       C  0.66854172  0.90643324  0.80666432     0.12400
C2204       C  0.66484688  0.92463984  0.88069052     0.63000
H2205       H  0.67904074  0.92530075  0.96288288     0.12400
C2206       C  0.69982453  0.89746776  0.91605127     0.55100
H2207       H  0.68401235  0.89541324  0.83737067     0.08200
C2208       C  0.67679552  0.91367347  0.76575775    -0.05600
C2209       C  0.67010047  0.91021884  0.72054951    -0.06300
C2210       C  0.65554296  0.89966035  0.71489294    -0.15900
C2211       C  0.64718107  0.89265934  0.75649620    -0.01500
C2212       C  0.65397937  0.89614751  0.80160825    -0.09100
C2213       C  0.69270162  0.92475982  0.76974158     0.65200
H2214       H  0.67639330  0.91553870  0.68894444     0.10700
C2215       C  0.63120504  0.88159033  0.75424616     0.63600
H2216       H  0.64803366  0.89066721  0.83361544     0.08000
F2217       F  0.71410006  0.90818102  0.91847436    -0.19400
F2218       F  0.69852447  0.88842957  0.87854434    -0.15700
F2219       F  0.69598200  0.88948226  0.95788899    -0.19100
F2220       F  0.65055186  0.91450386  0.87340501    -0.22500
F2221       F  0.67009713  0.93317235  0.84026396    -0.24000
F2222       F  0.66557693  0.93331026  0.91862473    -0.18000
F2223       F  0.62916886  0.86952787  0.72973748    -0.20500
F2224       F  0.62383133  0.88740036  0.73150601    -0.21600
F2225       F  0.62523658  0.87720646  0.79948402    -0.18800
F2226       F  0.69833796  0.93157841  0.72643019    -0.18900
F2227       F  0.70031876  0.91815645  0.78388422    -0.22700
F2228       F  0.69473044  0.93513326  0.80310969    -0.24400
C2229       C  0.67854070  0.92284281  0.27381570    -0.11200
C2230       C  0.68245341  0.91598025  0.30853470     0.11400
C2231       C  0.69262962  0.91171920  0.29658758    -0.03000
C2232       C  0.69833922  0.91426047  0.24970408    -0.05700
C2233       C  0.69409051  0.92071523  0.21447995    -0.16500
C2234       C  0.68436450  0.92551413  0.22703176     0.02400
C2235       C  0.67476836  0.91225840  0.35562641     0.12400
C2236       C  0.69728426  0.90432884  0.33298852     0.63000
H2237       H  0.70585378  0.91075433  0.23964846     0.12400
C2238       C  0.68059194  0.93392046  0.19196808     0.55100
H2239       H  0.67066293  0.92590232  0.28354935     0.08200
C2240       C  0.67840858  0.92228749  0.39354278    -0.05600
C2241       C  0.67069750  0.91764883  0.43720591    -0.06300
C2242       C  0.65932334  0.90348183  0.44351558    -0.15900
C2243       C  0.65564259  0.89352956  0.40512588    -0.01500
C2244       C  0.66333583  0.89820564  0.36168227    -0.09100
C2245       C  0.69031609  0.93779370  0.38774398     0.65200
H2246       H  0.67341337  0.92512014  0.46674856     0.10700
C2247       C  0.64404094  0.87786658  0.41025301     0.63600
H2248       H  0.66058366  0.89082537  0.33182829     0.08000
F2249       F  0.67245147  0.93910809  0.21347281    -0.19400
F2250       F  0.67274158  0.92526009  0.15404006    -0.15700
F2251       F  0.69310257  0.94554120  0.17474564    -0.19100
F2252       F  0.68566356  0.89126863  0.34612985    -0.22500
F2253       F  0.70277873  0.91284084  0.37334969    -0.24000
F2254       F  0.70781870  0.90178689  0.31473093    -0.18000
F2255       F  0.63069922  0.87681410  0.41418379    -0.20500
F2256       F  0.64664281  0.87202000  0.45059440    -0.21600
F2257       F  0.64366393  0.86975635  0.37104829    -0.18800
F2258       F  0.69239705  0.94567233  0.42929541    -0.18900
F2259       F  0.68683368  0.94424500  0.35137488    -0.22700
F2260       F  0.70312927  0.93833664  0.37645685    -0.24400
C2261       C  0.75698064  0.98133384  0.98466419    -0.11200
C2262       C  0.75289731  0.99158373  0.99463976     0.11400
C2263       C  0.74122218  0.98805706  0.02611786    -0.03000
C2264       C  0.73403104  0.97429212  0.04688345    -0.05700
C2265       C  0.73787196  0.96384760  0.03640317    -0.16500
C2266       C  0.74963902  0.96743402  0.00482158     0.02400
C2267       C  0.76066247  0.00580848  0.97032239     0.12400
C2268       C  0.73601584  0.99860966  0.03628364     0.63000
H2269       H  0.72496209  0.97141774  0.07049819     0.12400
C2270       C  0.75409628  0.95656246  0.99059036     0.55100
H2271       H  0.76584188  0.98427600  0.96002192     0.08200
C2272       C  0.77353011  0.01732499  0.98896147    -0.05600
C2273       C  0.77934395  0.03093247  0.96713627    -0.06300
C2274       C  0.77257791  0.03338795  0.92794845    -0.15900
C2275       C  0.76016706  0.02153883  0.90747175    -0.01500
C2276       C  0.75454229  0.00790343  0.92892544    -0.09100
C2277       C  0.78083460  0.01527159  0.03245979     0.65200
H2278       H  0.78889473  0.03995062  0.98217362     0.10700
C2279       C  0.75268772  0.02314706  0.86365169     0.63600
H2280       H  0.74485611  0.99881608  0.91482950     0.08000
F2281       F  0.75862493  0.95235653  0.03069674    -0.19400
F2282       F  0.76531594  0.96217174  0.95783903    -0.15700
F2283       F  0.74258609  0.94469817  0.96971112    -0.19100
F2284       F  0.73051981  0.00101449  0.99473713    -0.22500
F2285       F  0.74725295  0.01151221  0.05251348    -0.24000
F2286       F  0.72529634  0.99348338  0.07083637    -0.18000
F2287       F  0.74249784  0.00995104  0.84531292    -0.20500
F2288       F  0.76266776  0.03043169  0.82785615    -0.21600
F2289       F  0.74572352  0.03059712  0.87579765    -0.18800
F2290       F  0.79307701  0.02788978  0.04551080    -0.18900
F2291       F  0.78481216  0.00514622  0.02231744    -0.22700
F2292       F  0.77152648  0.01062311  0.07120813    -0.24400
C2293       C  0.27322810  0.12370423  0.90020340    -0.11200
C2294       C  0.28429169  0.13585462  0.87742089     0.11400
C2295       C  0.29658005  0.13556542  0.86025710    -0.03000
C2296       C  0.29729517  0.12295626  0.86622136    -0.05700
C2297       C  0.28639571  0.11086389  0.88987563    -0.16500
C2298       C  0.27408179  0.11116048  0.90713199     0.02400
C2299       C  0.28381824  0.14942144  0.87877586     0.12400
C2300       C  0.30926801  0.14877983  0.83822513     0.63000
H2301       H  0.30667005  0.12259654  0.85365486     0.12400
C2302       C  0.26223511  0.09863043  0.93469316     0.55100
H2303       H  0.26411833  0.12434127  0.91400438     0.08200
C2304       C  0.27777348  0.15372214  0.84168580    -0.05600
C2305       C  0.27945232  0.16761282  0.84379091    -0.06300
C2306       C  0.28649818  0.17688543  0.88253557    -0.15900
C2307       C  0.29106410  0.17183240  0.92201210    -0.01500
C2308       C  0.28982129  0.15822986  0.91899302    -0.09100
C2309       C  0.26931801  0.14355587  0.80107850     0.65200
H2310       H  0.27552110  0.17143037  0.81483201     0.10700
C2311       C  0.29682603  0.18052402  0.96788582     0.63600
H2312       H  0.29384173  0.15443351  0.94778032     0.08000
F2313       F  0.25499906  0.08699058  0.90434895    -0.19400
F2314       F  0.25230774  0.10194905  0.95361997    -0.15700
F2315       F  0.26808477  0.09490284  0.97243911    -0.19100
F2316       F  0.31551680  0.15950394  0.87236781    -0.22500
F2317       F  0.30477665  0.15375030  0.80011379    -0.24000
F2318       F  0.31970351  0.14588489  0.82135730    -0.18000
F2319       F  0.29791570  0.17243210  0.00452641    -0.20500
F2320       F  0.28760862  0.18522937  0.98320159    -0.21600
F2321       F  0.31035890  0.19220538  0.96000440    -0.18800
F2322       F  0.26438677  0.14986836  0.76870431    -0.18900
F2323       F  0.25753613  0.13149507  0.81979460    -0.22700
F2324       F  0.27776657  0.13935013  0.77634357    -0.24400
C2325       C  0.12346042  0.84862914  0.08924332    -0.11200
C2326       C  0.13723073  0.85017677  0.08946700     0.11400
C2327       C  0.13878762  0.83791178  0.09247370    -0.03000
C2328       C  0.12637236  0.82433560  0.09252212    -0.05700
C2329       C  0.11246044  0.82254911  0.09073045    -0.16500
C2330       C  0.11091450  0.83495476  0.09011950     0.02400
C2331       C  0.15002925  0.86470536  0.08563591     0.12400
C2332       C  0.15352886  0.83915214  0.09609564     0.63000
H2333       H  0.12752024  0.81490294  0.09423874     0.12400
C2334       C  0.09628378  0.83393970  0.08948075     0.55100
H2335       H  0.12267154  0.85827613  0.08773830     0.08200
C2336       C  0.15605645  0.87078818  0.04048747    -0.05600
C2337       C  0.16976667  0.88314623  0.03924960    -0.06300
C2338       C  0.17731202  0.88952857  0.08156077    -0.15900
C2339       C  0.17093885  0.88394155  0.12671402    -0.01500
C2340       C  0.15719680  0.87161942  0.12798704    -0.09100
C2341       C  0.14811499  0.86407768  0.99402771     0.65200
H2342       H  0.17487106  0.88775210  0.00519506     0.10700
C2343       C  0.17905902  0.89040215  0.17303907     0.63600
H2344       H  0.15230562  0.86674360  0.16201121     0.08000
F2345       F  0.08871697  0.82648361  0.04917429    -0.19400
F2346       F  0.09745018  0.84736248  0.08847376    -0.15700
F2347       F  0.08864825  0.82696688  0.13031059    -0.19100
F2348       F  0.16014397  0.84610849  0.13822121    -0.22500
F2349       F  0.16207455  0.84682296  0.05766545    -0.24000
F2350       F  0.15258887  0.82583331  0.09626696    -0.18000
F2351       F  0.18295425  0.90473386  0.17582853    -0.20500
F2352       F  0.19132699  0.88923603  0.17417335    -0.21600
F2353       F  0.17081702  0.88350022  0.21303610    -0.18800
F2354       F  0.15601145  0.87158107  0.95417925    -0.18900
F2355       F  0.13522934  0.86407768  0.99354327    -0.22700
F2356       F  0.14531607  0.85009427  0.99010492    -0.24400
C2357       C  0.25586268  0.00917102  0.94584621    -0.11200
C2358       C  0.24919313  0.00763612  0.99054434     0.11400
C2359       C  0.25028531  0.01983471  0.01392700    -0.03000
C2360       C  0.25818792  0.03330325  0.99151604    -0.05700
C2361       C  0.26544520  0.03495056  0.94791711    -0.16500
C2362       C  0.26408268  0.02269311  0.92404105     0.02400
C2363       C  0.24233821  0.99327211  0.01350238     0.12400
C2364       C  0.24359387  0.01872592  0.06299639     0.63000
H2365       H  0.25943948  0.04282722  0.00929976     0.12400
C2366       C  0.27119159  0.02383829  0.87580922     0.55100
H2367       H  0.25500357  0.99968780  0.92897866     0.08200
C2368       C  0.22854897  0.98207289  0.99999361    -0.05600
C2369       C  0.22377380  0.96818157  0.01800848    -0.06300
C2370       C  0.23240958  0.96521346  0.04849977    -0.15900
C2371       C  0.24567080  0.97675646  0.06530799    -0.01500
C2372       C  0.25051134  0.99056767  0.04661032    -0.09100
C2373       C  0.21925111  0.98461096  0.96480010     0.65200
H2374       H  0.21355467  0.95936587  0.00604287     0.10700
C2375       C  0.25475047  0.97468133  0.10274475     0.63600
H2376       H  0.26102426  0.99934423  0.05648787     0.08000
F2377       F  0.26650137  0.01047009  0.85542662    -0.19400
F2378       F  0.28594952  0.03044852  0.88139720    -0.15700
F2379       F  0.26794246  0.03176733  0.84440627    -0.19100
F2380       F  0.25005822  0.01435455  0.09662185    -0.22500
F2381       F  0.22903120  0.00889179  0.06173822    -0.24000
F2382       F  0.24527181  0.03176707  0.07789104    -0.18000
F2383       F  0.26142626  0.96777580  0.08250641    -0.20500
F2384       F  0.24615261  0.96663733  0.14065788    -0.21600
F2385       F  0.26533975  0.98767471  0.12112951    -0.18800
F2386       F  0.20549135  0.97285441  0.96192090    -0.18900
F2387       F  0.22539682  0.98722259  0.91964802    -0.22700
F2388       F  0.21804361  0.99628951  0.97890706    -0.24400
C2389       C  0.36215908  0.16665384  0.43837331    -0.11200
C2390       C  0.37533898  0.17786322  0.42198097     0.11400
C2391       C  0.38683898  0.17532035  0.41280973    -0.03000
C2392       C  0.38423281  0.16113977  0.41597206    -0.05700
C2393       C  0.37053198  0.14956214  0.42755670    -0.16500
C2394       C  0.35936130  0.15243033  0.44047014     0.02400
C2395       C  0.37622787  0.19182930  0.41174774     0.12400
C2396       C  0.40164791  0.18746865  0.39880500     0.63000
H2397       H  0.39278627  0.15893131  0.40742372     0.12400
C2398       C  0.34441318  0.14068789  0.45531157     0.55100
H2399       H  0.35373047  0.16907407  0.44672798     0.08200
C2400       C  0.36959411  0.19367183  0.37056626    -0.05600
C2401       C  0.36958590  0.20663593  0.36498257    -0.06300
C2402       C  0.37593683  0.21773635  0.39895342    -0.15900
C2403       C  0.38300865  0.21608138  0.43939323    -0.01500
C2404       C  0.38282887  0.20297664  0.44537239    -0.09100
C2405       C  0.36227284  0.18188460  0.33310236     0.65200
H2406       H  0.36424265  0.20807782  0.33432292     0.10700
C2407       C  0.39034164  0.22783763  0.47673856     0.63600
H2408       H  0.38759969  0.20118691  0.47691794     0.08000
F2409       F  0.33737010  0.13211676  0.41617423    -0.19400
F2410       F  0.33608814  0.14627033  0.47240075    -0.15700
F2411       F  0.34541853  0.13243258  0.49147234    -0.19100
F2412       F  0.40704783  0.19765598  0.43489149    -0.22500
F2413       F  0.40075017  0.19383564  0.35687859    -0.24000
F2414       F  0.41131378  0.18267053  0.39151397    -0.18000
F2415       F  0.39543217  0.22345740  0.51500060    -0.20500
F2416       F  0.38074714  0.23173673  0.49465921    -0.21600
F2417       F  0.40192490  0.23965489  0.45600510    -0.18800
F2418       F  0.35753760  0.18638373  0.29419055    -0.18900
F2419       F  0.35043922  0.17011846  0.35289286    -0.22700
F2420       F  0.37181151  0.17776771  0.31636584    -0.24400
C2421       C  0.31653928  0.08729363  0.69597117    -0.11200
C2422       C  0.32712711  0.08337455  0.69129432     0.11400
C2423       C  0.33062651  0.07761611  0.73135631    -0.03000
C2424       C  0.32323287  0.07590705  0.77499327    -0.05700
C2425       C  0.31244991  0.07964011  0.77954282    -0.16500
C2426       C  0.30894303  0.08535507  0.73913002     0.02400
C2427       C  0.33479546  0.08630624  0.64436518     0.12400
C2428       C  0.34222038  0.07347801  0.72818963     0.63000
H2429       H  0.32586823  0.07166114  0.80614189     0.12400
C2430       C  0.29756070  0.08981603  0.74146322     0.55100
H2431       H  0.31429035  0.09194912  0.66506326     0.08200
C2432       C  0.32843898  0.07753419  0.60354525    -0.05600
C2433       C  0.33558064  0.08194426  0.55902589    -0.06300
C2434       C  0.34863955  0.09494687  0.55364213    -0.15900
C2435       C  0.35501718  0.10372149  0.59485039    -0.01500
C2436       C  0.34795355  0.09912873  0.63951979    -0.09100
C2437       C  0.31400762  0.06372274  0.60674680     0.65200
H2438       H  0.33076402  0.07535481  0.52754617     0.10700
C2439       C  0.36877377  0.11820478  0.59185067     0.63600
H2440       H  0.35238739  0.10580095  0.67108476     0.08000
F2441       F  0.28417321  0.07786517  0.74899494    -0.19400
F2442       F  0.29687518  0.09625206  0.69930422    -0.15700
F2443       F  0.30067341  0.09955178  0.77838254    -0.19100
F2444       F  0.35540638  0.08554792  0.71935415    -0.22500
F2445       F  0.33912053  0.06371571  0.69144582    -0.24000
F2446       F  0.34330124  0.06726663  0.77032047    -0.18000
F2447       F  0.37245823  0.12521033  0.63570588    -0.20500
F2448       F  0.36698142  0.12694827  0.55954651    -0.21600
F2449       F  0.38007776  0.11636179  0.57733047    -0.18800
F2450       F  0.31008086  0.05649027  0.56333455    -0.18900
F2451       F  0.30337632  0.06675108  0.61982184    -0.22700
F2452       F  0.31467486  0.05468047  0.64052428    -0.24400
C2453       C  0.31594363  0.09469655  0.13038338    -0.11200
C2454       C  0.32389210  0.08803234  0.14218522     0.11400
C2455       C  0.32626013  0.07989543  0.10713552    -0.03000
C2456       C  0.32053511  0.07875235  0.06082793    -0.05700
C2457       C  0.31257992  0.08545301  0.04885523    -0.16500
C2458       C  0.31045334  0.09381073  0.08393231     0.02400
C2459       C  0.33067032  0.09091488  0.19037679     0.12400
C2460       C  0.33476157  0.07245411  0.11873271     0.63000
H2461       H  0.32201731  0.07237030  0.03374369     0.12400
C2462       C  0.30303762  0.10232255  0.07212702     0.55100
H2463       H  0.31435696  0.10090959  0.15787028     0.08200
C2464       C  0.34334010  0.10401705  0.20039907    -0.05600
C2465       C  0.34904508  0.10642244  0.24693321    -0.06300
C2466       C  0.34261292  0.09620341  0.28383217    -0.15900
C2467       C  0.33009393  0.08282844  0.27324371    -0.01500
C2468       C  0.32424613  0.08052975  0.22653287    -0.09100
C2469       C  0.35071220  0.11556054  0.16224966     0.65200
H2470       H  0.35859045  0.11657275  0.25489408     0.10700
C2471       C  0.32300077  0.07093559  0.31027317     0.63600
H2472       H  0.31454121  0.07059631  0.21774225     0.08000
F2473       F  0.30885117  0.11021131  0.03064799    -0.19400
F2474       F  0.30475348  0.11186108  0.10843630    -0.15700
F2475       F  0.28845697  0.09309135  0.06581636    -0.19100
F2476       F  0.32731823  0.06173474  0.15210494    -0.22500
F2477       F  0.34808427  0.08219684  0.13732750    -0.24000
F2478       F  0.33699602  0.06628822  0.07838673    -0.18000
F2479       F  0.31179608  0.05850846  0.29082203    -0.20500
F2480       F  0.31747375  0.07531695  0.34727830    -0.21600
F2481       F  0.33298046  0.06758911  0.32826092    -0.18800
F2482       F  0.36398696  0.12649149  0.17747973    -0.18900
F2483       F  0.34222337  0.12149685  0.15148186    -0.22700
F2484       F  0.35291353  0.10975315  0.12098889    -0.24400
C2485       C  0.50518240  0.03607758  0.19514957    -0.11200
C2486       C  0.51517838  0.04525486  0.22916895     0.11400
C2487       C  0.51163529  0.05380640  0.25870249    -0.03000
C2488       C  0.49772447  0.05208753  0.25521603    -0.05700
C2489       C  0.48734578  0.04202235  0.22379884    -0.16500
C2490       C  0.49121828  0.03412674  0.19235121     0.02400
C2491       C  0.52893565  0.04502497  0.23394000     0.12400
C2492       C  0.52237049  0.06445718  0.29429652     0.63000
H2493       H  0.49463195  0.05816097  0.27852907     0.12400
C2494       C  0.48065613  0.02360183  0.15610951     0.55100
H2495       H  0.50824629  0.02993490  0.17205906     0.08200
C2496       C  0.52944207  0.03363175  0.25758207    -0.05600
C2497       C  0.54245954  0.03341469  0.25784113    -0.06300
C2498       C  0.55493608  0.04398306  0.23454611    -0.15900
C2499       C  0.55441808  0.05546772  0.21102091    -0.01500
C2500       C  0.54136369  0.05573098  0.21119548    -0.09100
C2501       C  0.51613920  0.02144822  0.28114431     0.65200
H2502       H  0.54286391  0.02467223  0.27557307     0.10700
C2503       C  0.56734632  0.06719055  0.18462355     0.63600
H2504       H  0.54063389  0.06418170  0.19262503     0.08000
F2505       F  0.47001219  0.01173590  0.17973473    -0.19400
F2506       F  0.48729117  0.01888730  0.12410205    -0.15700
F2507       F  0.47450844  0.03009560  0.13001489    -0.19100
F2508       F  0.53439127  0.07472195  0.27013322    -0.22500
F2509       F  0.52647543  0.05740984  0.32650637    -0.24000
F2510       F  0.51664314  0.07145421  0.32007726    -0.18000
F2511       F  0.57215774  0.06115008  0.15069746    -0.20500
F2512       F  0.57824120  0.07513445  0.21699968    -0.21600
F2513       F  0.56406044  0.07650741  0.16098572    -0.18800
F2514       F  0.51933869  0.01236047  0.30666985    -0.18900
F2515       F  0.50614191  0.01338600  0.24639892    -0.22700
F2516       F  0.51008924  0.02689501  0.31265007    -0.24400
C2517       C  0.42921173  0.08028698  0.31405058    -0.11200
C2518       C  0.41421789  0.07396917  0.31077046     0.11400
C2519       C  0.40623062  0.06103517  0.28477924    -0.03000
C2520       C  0.41345751  0.05418719  0.26629318    -0.05700
C2521       C  0.42841883  0.06012387  0.27117280    -0.16500
C2522       C  0.43655823  0.07366536  0.29426646     0.02400
C2523       C  0.40718850  0.08137692  0.33368298     0.12400
C2524       C  0.39020255  0.05465587  0.27576433     0.63000
H2525       H  0.40740490  0.04403398  0.24769446     0.12400
C2526       C  0.45280902  0.08099162  0.29923714     0.55100
H2527       H  0.43508724  0.09043342  0.33282467     0.08200
C2528       C  0.40224760  0.07867023  0.38179552    -0.05600
C2529       C  0.39463002  0.08522201  0.39964448    -0.06300
C2530       C  0.39245852  0.09481766  0.37168190    -0.15900
C2531       C  0.39819338  0.09817080  0.32444170    -0.01500
C2532       C  0.40542879  0.09128385  0.30621892    -0.09100
C2533       C  0.40511500  0.06900577  0.41409745     0.65200
H2534       H  0.39025270  0.08287457  0.43569059     0.10700
C2535       C  0.39626335  0.10854927  0.29266532     0.63600
H2536       H  0.40961685  0.09339344  0.26992071     0.08000
F2537       F  0.45654426  0.07216541  0.32380933    -0.19400
F2538       F  0.45837912  0.09382856  0.32415601    -0.15700
F2539       F  0.45908192  0.08399140  0.25419650    -0.19100
F2540       F  0.38794409  0.06415404  0.24894005    -0.22500
F2541       F  0.38284485  0.05205378  0.31868411    -0.24000
F2542       F  0.38445211  0.04181581  0.25080238    -0.18000
F2543       F  0.40170164  0.10934247  0.24695326    -0.20500
F2544       F  0.40344032  0.12215597  0.31250780    -0.21600
F2545       F  0.38179798  0.10413435  0.28835130    -0.18800
F2546       F  0.39971309  0.06814132  0.45990581    -0.18900
F2547       F  0.41978364  0.07439395  0.41778971    -0.22700
F2548       F  0.39878078  0.05528120  0.39535668    -0.24400
C2549       C  0.46320128  0.94712295  0.72549588    -0.11200
C2550       C  0.47420513  0.95607665  0.75731126     0.11400
C2551       C  0.47185963  0.96484770  0.78977532    -0.03000
C2552       C  0.45874823  0.96484113  0.78760737    -0.05700
C2553       C  0.44787843  0.95631577  0.75457167    -0.16500
C2554       C  0.44993951  0.94693186  0.72384776     0.02400
C2555       C  0.48861266  0.95728384  0.75221239     0.12400
C2556       C  0.48323750  0.97434155  0.82616531     0.63000
H2557       H  0.45700486  0.97183202  0.81125152     0.12400
C2558       C  0.43849141  0.93713778  0.68836359     0.55100
H2559       H  0.46528880  0.94056955  0.70089094     0.08200
C2560       C  0.49213764  0.94753948  0.77375812    -0.05600
C2561       C  0.50627146  0.94994284  0.76861689    -0.06300
C2562       C  0.51687095  0.96161226  0.74214905    -0.15900
C2563       C  0.51307252  0.97108998  0.71910862    -0.01500
C2564       C  0.49896596  0.96865052  0.72459639    -0.09100
C2565       C  0.48091310  0.93445430  0.80084102     0.65200
H2566       H  0.50914234  0.94264161  0.78534794     0.10700
C2567       C  0.52360504  0.98361485  0.68810163     0.63600
H2568       H  0.49587057  0.97578196  0.70780379     0.08000
F2569       F  0.44300784  0.92941955  0.66067211    -0.19400
F2570       F  0.43515683  0.94516484  0.65772945    -0.15700
F2571       F  0.42626429  0.92741987  0.71301846    -0.19100
F2572       F  0.49559968  0.98435516  0.80290977    -0.22500
F2573       F  0.48653577  0.96604435  0.85550107    -0.24000
F2574       F  0.47857664  0.98168923  0.85512377    -0.18000
F2575       F  0.51708175  0.99033805  0.66547646    -0.20500
F2576       F  0.52921441  0.97875396  0.65282701    -0.21600
F2577       F  0.53462388  0.99377868  0.71617476    -0.18800
F2578       F  0.48684934  0.92703996  0.82251747    -0.18900
F2579       F  0.47039716  0.92526151  0.76925659    -0.22700
F2580       F  0.47458305  0.93846361  0.83623048    -0.24400
C2581       C  0.42815615  0.00585588  0.55421074    -0.11200
C2582       C  0.43239264  0.99977590  0.51778023     0.11400
C2583       C  0.43480694  0.98831320  0.52822902    -0.03000
C2584       C  0.43196991  0.98265055  0.57488689    -0.05700
C2585       C  0.42710573  0.98826359  0.61140030    -0.16500
C2586       C  0.42542755  0.00032612  0.60119906     0.02400
C2587       C  0.43439613  0.00577839  0.46885938     0.12400
C2588       C  0.44043410  0.98217576  0.49024451     0.63000
H2589       H  0.43351166  0.97367282  0.58307996     0.12400
C2590       C  0.42052939  0.00725171  0.63875522     0.55100
H2591       H  0.42677880  0.01488251  0.54505623     0.08200
C2592       C  0.42276812  0.00122244  0.43652254    -0.05600
C2593       C  0.42558911  0.00714541  0.39013551    -0.06300
C2594       C  0.43955803  0.01746903  0.37569704    -0.15900
C2595       C  0.45120454  0.02195757  0.40834872    -0.01500
C2596       C  0.44830230  0.01613428  0.45482415    -0.09100
C2597       C  0.40748231  0.99023233  0.45118458     0.65200
H2598       H  0.41683238  0.00386399  0.36486461     0.10700
C2599       C  0.46670526  0.03237219  0.39407665     0.63600
H2600       H  0.45692793  0.01947229  0.48068207     0.08000
F2601       F  0.40701440  0.99732890  0.65559360    -0.19400
F2602       F  0.41967577  0.01876009  0.62036717    -0.15700
F2603       F  0.43021491  0.01233537  0.67640963    -0.19100
F2604       F  0.45389736  0.99268822  0.47500017    -0.22500
F2605       F  0.43124059  0.97731395  0.45130624    -0.24000
F2606       F  0.44167245  0.97079333  0.50766025    -0.18000
F2607       F  0.46857437  0.04593055  0.38708435    -0.20500
F2608       F  0.47007464  0.02770635  0.35229546    -0.21600
F2609       F  0.47633978  0.03343684  0.42907117    -0.18800
F2610       F  0.39782905  0.98710839  0.41395469    -0.18900
F2611       F  0.40316087  0.99547919  0.48915312    -0.22700
F2612       F  0.40681372  0.97757799  0.46506205    -0.24400
C2613       C  0.40566374  0.98645902  0.94735467    -0.11200
C2614       C  0.41952491  0.99499717  0.96635641     0.11400
C2615       C  0.43169408  0.99739130  0.93917366    -0.03000
C2616       C  0.42956718  0.99151718  0.89275555    -0.05700
C2617       C  0.41571907  0.98279158  0.87390322    -0.16500
C2618       C  0.40352415  0.98021938  0.90134579     0.02400
C2619       C  0.42110488  0.00082024  0.01577629     0.12400
C2620       C  0.44680703  0.00558492  0.95999548     0.63000
H2621       H  0.43873973  0.99324494  0.87135660     0.12400
C2622       C  0.38839730  0.97129411  0.88156013     0.55100
H2623       H  0.39652995  0.98462670  0.96915086     0.08200
C2624       C  0.42235969  0.01433271  0.02507012    -0.05600
C2625       C  0.42595490  0.02003868  0.07182992    -0.06300
C2626       C  0.42800340  0.01252488  0.10943427    -0.15900
C2627       C  0.42570167  0.99848479  0.10052477    -0.01500
C2628       C  0.42223424  0.99290048  0.05362367    -0.09100
C2629       C  0.42009639  0.02271730  0.98554562     0.65200
H2630       H  0.42746201  0.03059615  0.07918615     0.10700
C2631       C  0.42749712  0.98959846  0.13935280     0.63600
H2632       H  0.42087943  0.98244010  0.04550332     0.08000
F2633       F  0.37819484  0.97127137  0.91211051    -0.19400
F2634       F  0.38517603  0.95723717  0.87538004    -0.15700
F2635       F  0.38740259  0.97682979  0.83785786    -0.19100
F2636       F  0.44786039  0.99808154  0.99853932    -0.22500
F2637       F  0.44985925  0.01903958  0.97539890    -0.24000
F2638       F  0.45716056  0.00739776  0.92663645    -0.18000
F2639       F  0.41727265  0.98626916  0.17481268    -0.20500
F2640       F  0.44110985  0.99721055  0.15902479    -0.21600
F2641       F  0.42583206  0.97681861  0.12158612    -0.18800
F2642       F  0.42122557  0.03534038  0.00259934    -0.18900
F2643       F  0.40652182  0.01450499  0.96603195    -0.22700
F2644       F  0.43025062  0.02618433  0.94978365    -0.24400
C2645       C  0.19917072  0.82781242  0.54290644    -0.11200
C2646       C  0.20172412  0.81683155  0.55719608     0.11400
C2647       C  0.21597056  0.81994194  0.56590746    -0.03000
C2648       C  0.22710310  0.83443561  0.56565425    -0.05700
C2649       C  0.22432674  0.84568146  0.55592561    -0.16500
C2650       C  0.21017861  0.84223703  0.54208366     0.02400
C2651       C  0.18889426  0.80251684  0.56598695     0.12400
C2652       C  0.21930789  0.80798661  0.57465673     0.63000
H2653       H  0.23800439  0.83709294  0.57417576     0.12400
C2654       C  0.20642959  0.85355989  0.52697486     0.55100
H2655       H  0.18818550  0.82500365  0.53491799     0.08200
C2656       C  0.18061424  0.79986122  0.60832091    -0.05600
C2657       C  0.16704866  0.78735753  0.61091917    -0.06300
C2658       C  0.16156628  0.77745220  0.57291888    -0.15900
C2659       C  0.17027723  0.77965840  0.53182791    -0.01500
C2660       C  0.18381917  0.79232162  0.52892469    -0.09100
C2661       C  0.18592448  0.81042910  0.65003618     0.65200
H2662       H  0.16034370  0.78545158  0.64227604     0.10700
C2663       C  0.16509132  0.76908844  0.49038866     0.63600
H2664       H  0.19032187  0.79467676  0.49682438     0.08000
F2665       F  0.19277398  0.84746723  0.50728413    -0.19400
F2666       F  0.21607879  0.86249836  0.49263580    -0.15700
F2667       F  0.20678529  0.86153646  0.56645812    -0.19100
F2668       F  0.21555419  0.79927630  0.53450270    -0.22500
F2669       F  0.21160451  0.79980063  0.61365379    -0.24000
F2670       F  0.23379905  0.81329332  0.58348291    -0.18000
F2671       F  0.17490982  0.77375414  0.45296840    -0.20500
F2672       F  0.15222998  0.76727549  0.47284242    -0.21600
F2673       F  0.16311794  0.75602334  0.50602161    -0.18800
F2674       F  0.17663516  0.80531590  0.68887357    -0.18900
F2675       F  0.18712855  0.82331937  0.63614531    -0.22700
F2676       F  0.19923495  0.81286533  0.66507132    -0.24400
C2677       C  0.32292253  0.90578458  0.61637229    -0.11200
C2678       C  0.32894511  0.91943113  0.63758481     0.11400
C2679       C  0.32097324  0.92666667  0.63818265    -0.03000
C2680       C  0.30692222  0.91966162  0.61948124    -0.05700
C2681       C  0.30058015  0.90577156  0.59962984    -0.16500
C2682       C  0.30882039  0.89873876  0.59736425     0.02400
C2683       C  0.34392132  0.92625087  0.65673244     0.12400
C2684       C  0.32732447  0.94181716  0.65800841     0.63000
H2685       H  0.30068828  0.92504928  0.62074016     0.12400
C2686       C  0.30301737  0.88405834  0.57435780     0.55100
H2687       H  0.32941114  0.90066097  0.61510523     0.08200
C2688       C  0.34715352  0.92314632  0.70301397    -0.05600
C2689       C  0.36154896  0.93070769  0.71934240    -0.06300
C2690       C  0.37257868  0.94140202  0.69129064    -0.15900
C2691       C  0.36936179  0.94409306  0.64429277    -0.01500
C2692       C  0.35508549  0.93628176  0.62768503    -0.09100
C2693       C  0.33539077  0.91216341  0.73531798     0.65200
H2694       H  0.36422431  0.92869061  0.75486209     0.10700
C2695       C  0.38093028  0.95511193  0.61144564     0.63600
H2696       H  0.35239621  0.93825695  0.59211765     0.08000
F2697       F  0.29165807  0.87381078  0.60111648    -0.19400
F2698       F  0.31338615  0.88000319  0.57165039    -0.15700
F2699       F  0.29842581  0.88429365  0.52817018    -0.19100
F2700       F  0.33876137  0.95124268  0.62970016    -0.22500
F2701       F  0.33209715  0.94239571  0.70443544    -0.24000
F2702       F  0.31734323  0.94640129  0.65873844    -0.18000
F2703       F  0.37590765  0.95435872  0.56517419    -0.20500
F2704       F  0.39248892  0.95279076  0.60913893    -0.21600
F2705       F  0.38550653  0.96877733  0.62871473    -0.18800
F2706       F  0.34084934  0.91058082  0.77841736    -0.18900
F2707       F  0.32849262  0.89892889  0.71286663    -0.22700
F2708       F  0.32544896  0.91641943  0.74530472    -0.24400
C2709       C  0.23056221  0.89867326  0.76267998    -0.11200
C2710       C  0.24170597  0.90434053  0.79667705     0.11400
C2711       C  0.25548407  0.90667467  0.78359615    -0.03000
C2712       C  0.25762350  0.90330133  0.73656778    -0.05700
C2713       C  0.24657287  0.89788231  0.70221185    -0.16500
C2714       C  0.23277144  0.89554802  0.71527743     0.02400
C2715       C  0.23859878  0.90780965  0.84558911     0.12400
C2716       C  0.26789643  0.91272014  0.81903945     0.63000
H2717       H  0.26806682  0.90493313  0.72609163     0.12400
C2718       C  0.22030651  0.88934838  0.68008223     0.55100
H2719       H  0.22006429  0.89676205  0.77372916     0.08200
C2720       C  0.23730868  0.92008803  0.85439534    -0.05600
C2721       C  0.23390986  0.92246935  0.90109346    -0.06300
C2722       C  0.23208827  0.91322176  0.93947948    -0.15900
C2723       C  0.23388149  0.90115990  0.93089346    -0.01500
C2724       C  0.23679049  0.89852792  0.88367965    -0.09100
C2725       C  0.23946909  0.93063011  0.81458762     0.65200
H2726       H  0.23261478  0.93167579  0.90794994     0.10700
C2727       C  0.23256823  0.89096665  0.97082229     0.63600
H2728       H  0.23771432  0.88914913  0.87595450     0.08000
F2729       F  0.22328026  0.89877292  0.64237347    -0.19400
F2730       F  0.20762361  0.88697119  0.70135853    -0.15700
F2731       F  0.21812920  0.87636457  0.66260097    -0.19100
F2732       F  0.26494534  0.90301678  0.85578821    -0.22500
F2733       F  0.26992521  0.92548425  0.83805649    -0.24000
F2734       F  0.28066373  0.91543149  0.79754307    -0.18000
F2735       F  0.23405449  0.87966163  0.95389624    -0.20500
F2736       F  0.21921138  0.88526371  0.99251047    -0.21600
F2737       F  0.24325338  0.89827996  0.00450803    -0.18800
F2738       F  0.23956952  0.94273893  0.83207264    -0.18900
F2739       F  0.22844596  0.92415944  0.78154468    -0.22700
F2740       F  0.25247063  0.93504253  0.79172099    -0.24400
C2741       C  0.25307994  0.92045876  0.26072344    -0.11200
C2742       C  0.24294500  0.91521000  0.29798395     0.11400
C2743       C  0.22901876  0.91316810  0.29011397    -0.03000
C2744       C  0.22539357  0.91552543  0.24380342    -0.05700
C2745       C  0.23521906  0.91988718  0.20532075    -0.16500
C2746       C  0.24948318  0.92276341  0.21421356     0.02400
C2747       C  0.24700243  0.91129198  0.34428628     0.12400
C2748       C  0.21803528  0.90845205  0.33048547     0.63000
H2749       H  0.21465019  0.91365763  0.23714635     0.12400
C2750       C  0.26091410  0.92813777  0.17521905     0.55100
H2751       H  0.26376355  0.92225207  0.26813690     0.08200
C2752       C  0.24647992  0.89798195  0.35048421    -0.05600
C2753       C  0.24955733  0.89452540  0.39604919    -0.06300
C2754       C  0.25320058  0.90393551  0.43546927    -0.15900
C2755       C  0.25436178  0.91760327  0.42832110    -0.01500
C2756       C  0.25125239  0.92099721  0.38261367    -0.09100
C2757       C  0.24251473  0.88742315  0.30911638     0.65200
H2758       H  0.24885861  0.88422450  0.40134353     0.10700
C2759       C  0.25897947  0.92871034  0.46811908     0.63600
H2760       H  0.25186834  0.93123177  0.37644673     0.08000
F2761       F  0.25734997  0.91748766  0.14127007    -0.19400
F2762       F  0.27434102  0.93183794  0.19335507    -0.15700
F2763       F  0.26199049  0.94021773  0.15361891    -0.19100
F2764       F  0.22303143  0.91884338  0.36593961    -0.22500
F2765       F  0.21575982  0.89566048  0.34994814    -0.24000
F2766       F  0.20491324  0.90641843  0.31469540    -0.18000
F2767       F  0.27204413  0.93139858  0.48675580    -0.20500
F2768       F  0.24868485  0.92377757  0.50400221    -0.21600
F2769       F  0.26066306  0.94161619  0.45176067    -0.18800
F2770       F  0.24220754  0.87491908  0.32299888    -0.18900
F2771       F  0.25251563  0.89356138  0.27261182    -0.22700
F2772       F  0.22905126  0.88377508  0.29164949    -0.24400
loop_ 
_geom_bond_atom_site_label_1 
_geom_bond_atom_site_label_2 
_geom_bond_distance 
_geom_bond_site_symmetry_2 
_ccdc_geom_bond_type 
In1           O3   2.220       .  S
In1           O4   2.274       .  S
In1          O12   2.262       .  S
In1           O6   2.251       .  S
In1           O8   2.264       .  S
In1           O9   2.265       .  S
In1          O10   2.246       .  S
In1          O13   2.236       .  S
C2            O8   1.262       .  A
C2           O10   1.260       .  A
C2         C2713   1.486       .  S
O3           C11   1.257       .  A
O4           C11   1.265       .  A
C5           O12   1.262       .  A
C5            O6   1.259       .  A
C5         C2754   1.498       .  S
C7            O9   1.263       .  A
C7           O13   1.262       .  A
C7         C2681   1.496       .  S
C11        C2649   1.489       .  S
In14         O16   2.233       .  S
In14         O17   2.283       .  S
In14         O25   2.259       .  S
In14         O19   2.243       .  S
In14         O21   2.238       .  S
In14         O22   2.281       .  S
In14         O23   2.234       .  S
In14         O26   2.233       .  S
C15          O21   1.260       .  A
C15          O23   1.262       .  A
C15        C2585   1.487       .  S
O16          C24   1.258       .  A
O17          C24   1.265       .  A
C18          O25   1.262       .  A
C18          O19   1.259       .  A
C18        C2617   1.481       .  S
C20          O22   1.267       .  A
C20          O26   1.258       .  A
C20        C2690   1.487       .  S
C24        C2553   1.493       .  S
In27         O29   2.234       .  S
In27         O30   2.271       .  S
In27         O38   2.256       .  S
In27         O32   2.246       .  S
In27         O34   2.251       .  S
In27         O35   2.263       .  S
In27         O36   2.221       .  S
In27         O39   2.234       .  S
C28          O34   1.263       .  A
C28          O36   1.257       .  A
C28        C2594   1.480       .  S
O29          C37   1.259       .  A
O30          C37   1.264       .  A
C31          O38   1.264       .  A
C31          O32   1.260       .  A
C31        C2626   1.490       .  S
C33          O35   1.263       .  A
C33          O39   1.260       .  A
C33        C2521   1.490       .  S
C37        C2489   1.485       .  S
In40         O42   2.229       .  S
In40         O43   2.258       .  S
In40         O51   2.250       .  S
In40         O45   2.251       .  S
In40         O47   2.269       .  S
In40         O48   2.253       .  S
In40         O49   2.222       .  S
In40         O52   2.250       .  S
C41          O47   1.263       .  A
C41          O49   1.259       .  A
C41        C2466   1.493       .  S
O42          C50   1.259       .  A
O43          C50   1.264       .  A
C44          O51   1.261       .  A
C44          O45   1.264       .  A
C44        C2434   1.495       .  S
C46          O48   1.260       .  A
C46          O52   1.261       .  A
C46        C2530   1.482       .  S
C50        C2393   1.489       .  S
In53         O55   2.239       .  S
In53         O56   2.251       .  S
In53         O64   2.253       .  S
In53         O58   2.255       .  S
In53         O60   2.261       .  S
In53         O61   2.252       .  S
In53         O62   2.250   1_554  S
In53         O65   2.236       .  S
C54          O60   1.262   1_556  A
C54          O62   1.261       .  A
C54        C2722   1.494       .  S
O55          C63   1.258       .  A
O56          C63   1.259       .  A
C57          O64   1.260       .  A
C57          O58   1.260       .  A
C57        C2745   1.493       .  S
C59          O61   1.262       .  A
C59          O65   1.260       .  A
C59        C2370   1.487       .  S
C63        C2338   1.468       .  S
In66         O68   2.239       .  S
In66         O69   2.250       .  S
In66         O77   2.242       .  S
In66         O71   2.259       .  S
In66         O73   2.263       .  S
In66         O74   2.249       .  S
In66         O75   2.237       .  S
In66         O78   2.242       .  S
C67          O73   1.263       .  A
C67          O75   1.257       .  A
C67        C2457   1.483   1_556  S
O68          C76   1.263       .  A
O69          C76   1.262       .  A
C70          O77   1.261       .  A
C70          O71   1.264       .  A
C70        C2425   1.490       .  S
C72          O74   1.260       .  A
C72          O78   1.258       .  A
C72        C2361   1.478       .  S
C76        C2297   1.485       .  S
In79         O81   2.241       .  S
In79         O82   2.256       .  S
In79         O90   2.257       .  S
In79         O84   2.251       .  S
In79         O86   2.260       .  S
In79         O87   2.259       .  S
In79         O88   2.233   1_554  S
In79         O91   2.236       .  S
C80          O86   1.264   1_556  A
C80          O88   1.257       .  A
C80        C2201   1.484       .  S
O81          C89   1.260       .  A
O82          C89   1.262       .  A
C83          O90   1.263       .  A
C83          O84   1.261       .  A
C83        C2233   1.488       .  S
C85          O87   1.263       .  A
C85          O91   1.262       .  A
C85        C2169   1.484       .  S
C89        C2265   1.491       .  S
In92         O94   2.251       .  S
In92         O95   2.269       .  S
In92        O103   2.258       .  S
In92         O97   2.255       .  S
In92         O99   2.255       .  S
In92        O100   2.264       .  S
In92        O101   2.245       .  S
In92        O104   2.222       .  S
C93          O99   1.262       .  A
C93         O101   1.260       .  A
C93        C2137   1.495   1_556  S
O94         C102   1.257       .  A
O95         C102   1.261       .  A
C96         O103   1.263       .  A
C96          O97   1.262       .  A
C96        C2105   1.491       .  S
C98         O100   1.264       .  A
C98         O104   1.261       .  A
C98        C2073   1.492       .  S
C102       C2274   1.494       .  S
In105       O107   2.251       .  S
In105       O108   2.260       .  S
In105       O116   2.251       .  S
In105       O110   2.268       .  S
In105       O112   2.272       .  S
In105       O113   2.262       .  S
In105       O114   2.238       .  S
In105       O117   2.225       .  S
C106        O112   1.263       .  A
C106        O114   1.259       .  A
C106       C2146   1.488       .  S
O107        C115   1.259       .  A
O108        C115   1.260       .  A
C109        O116   1.260       .  A
C109        O110   1.263       .  A
C109       C2114   1.493       .  S
C111        O113   1.264       .  A
C111        O117   1.260       .  A
C111       C2018   1.481       .  S
C115       C2050   1.491       .  S
In118       O120   2.246       .  S
In118       O121   2.261       .  S
In118       O129   2.257       .  S
In118       O123   2.252       .  S
In118       O125   2.264       .  S
In118       O126   2.274       .  S
In118       O127   2.223       .  S
In118       O130   2.249       .  S
C119        O125   1.263       .  A
C119        O127   1.260       .  A
C119       C1945   1.492       .  S
O120        C128   1.260       .  A
O121        C128   1.262       .  A
C122        O129   1.262       .  A
C122        O123   1.262       .  A
C122       C1977   1.488       .  S
C124        O126   1.263       .  A
C124        O130   1.262       .  A
C124       C2498   1.500       .  S
C128       C2041   1.494       .  S
In131       O133   2.253       .  S
In131       O134   2.275       .  S
In131       O142   2.261       .  S
In131       O136   2.247       .  S
In131       O138   2.254       .  S
In131       O139   2.271       .  S
In131       O140   2.239       .  S
In131       O143   2.235       .  S
C132        O138   1.262       .  A
C132        O140   1.260       .  A
C132       C1954   1.480       .  S
O133        C141   1.259       .  A
O134        C141   1.262       .  A
C135        O142   1.263       .  A
C135        O136   1.261       .  A
C135       C1986   1.493       .  S
C137        O139   1.267       .  A
C137        O143   1.259       .  A
C137       C2562   1.497       .  S
C141       C1913   1.499       .  S
In144       O146   2.237       .  S
In144       O147   2.270       .  S
In144       O155   2.247       .  S
In144       O149   2.266       .  S
In144       O151   2.253       .  S
In144       O152   2.264       .  S
In144       O153   2.221       .  S
In144       O156   2.230       .  S
C145        O151   1.267       .  A
C145        O153   1.257       .  A
C145       C2210   1.491       .  S
O146        C154   1.259       .  A
O147        C154   1.264       .  A
C148        O155   1.262       .  A
C148        O149   1.264       .  A
C148       C2242   1.492       .  S
C150        O152   1.266       .  A
C150        O156   1.259       .  A
C150       C1881   1.488       .  S
C154       C1922   1.492       .  S
In157       O159   2.240       .  S
In157       O160   2.279       .  S
In157       O168   2.259       .  S
In157       O162   2.243       .  S
In157       O164   2.252       .  S
In157       O165   2.286       .  S
In157       O166   2.250       .  S
In157       O169   2.242       .  S
C158        O164   1.261       .  A
C158        O166   1.262       .  A
C158       C1849   1.491       .  S
O159        C167   1.260       .  A
O160        C167   1.266       .  A
C161        O168   1.264       .  A
C161        O162   1.260       .  A
C161       C1817   1.495       .  S
C163        O165   1.265       .  A
C163        O169   1.258       .  A
C163       C1785   1.495       .  S
C167       C1753   1.492       .  S
In170       O172   2.228       .  S
In170       O173   2.258       .  S
In170       O181   2.254       .  S
In170       O175   2.255       .  S
In170       O177   2.250       .  S
In170       O178   2.268       .  S
In170       O179   2.228       .  S
In170       O182   2.245       .  S
C171        O177   1.264       .  A
C171        O179   1.259       .  A
C171       C1689   1.484       .  S
O172        C180   1.262       .  A
O173        C180   1.264       .  A
C174        O181   1.260       .  A
C174        O175   1.261       .  A
C174       C1721   1.485       .  S
C176        O178   1.262       .  A
C176        O182   1.258       .  A
C176       C1794   1.491       .  S
C180       C1657   1.492       .  S
In183       O185   2.236       .  S
In183       O186   2.257       .  S
In183       O194   2.254       .  S
In183       O188   2.251       .  S
In183       O190   2.258       .  S
In183       O191   2.263       .  S
In183       O192   2.223       .  S
In183       O195   2.244       .  S
C184        O190   1.265       .  A
C184        O192   1.256       .  A
C184       C1593   1.492       .  S
O185        C193   1.261       .  A
O186        C193   1.264       .  A
C187        O194   1.263       .  A
C187        O188   1.261       .  A
C187       C1634   1.487       .  S
C189        O191   1.262       .  A
C189        O195   1.261       .  A
C189       C1561   1.495       .  S
C193       C1890   1.487       .  S
In196       O198   2.228       .  S
In196       O199   2.263       .  S
In196       O207   2.243       .  S
In196       O201   2.248       .  S
In196       O203   2.255       .  S
In196       O204   2.265       .  S
In196       O205   2.217       .  S
In196       O208   2.260       .  S
C197        O203   1.264       .  A
C197        O205   1.259       .  A
C197       C1698   1.484       .  S
O198        C206   1.259       .  A
O199        C206   1.268       .  A
C200        O207   1.262       .  A
C200        O201   1.265       .  A
C200       C1730   1.499       .  S
C202        O204   1.263       .  A
C202        O208   1.261       .  A
C202       C1570   1.494       .  S
C206       C1529   1.488       .  S
In209       O211   2.232       .  S
In209       O212   2.251       .  S
In209       O220   2.260       .  S
In209       O214   2.254       .  S
In209       O216   2.258       .  S
In209       O217   2.254       .  S
In209       O218   2.234   1_554  S
In209       O221   2.255       .  S
C210        O216   1.262   1_556  A
C210        O218   1.259       .  A
C210       C1602   1.480       .  S
O211        C219   1.261       .  A
O212        C219   1.263       .  A
C213        O220   1.262       .  A
C213        O214   1.260       .  A
C213       C1625   1.497       .  S
C215        O217   1.259       .  A
C215        O221   1.260       .  A
C215       C1497   1.490       .  S
C219       C2178   1.485       .  S
In222       O224   2.239       .  S
In222       O225   2.254       .  S
In222       O233   2.243       .  S
In222       O227   2.255       .  S
In222       O229   2.263       .  S
In222       O230   2.255       .  S
In222       O231   2.245       .  S
In222       O234   2.254       .  S
C223        O229   1.263       .  A
C223        O231   1.258       .  A
C223       C1858   1.492   1_556  S
O224        C232   1.262       .  A
O225        C232   1.262       .  A
C226        O233   1.261       .  A
C226        O227   1.262       .  A
C226       C1826   1.484       .  S
C228        O230   1.259       .  A
C228        O234   1.260       .  A
C228       C1506   1.493       .  S
C232       C1465   1.495       .  S
In235       O237   2.241       .  S
In235       O238   2.249       .  S
In235       O246   2.248       .  S
In235       O240   2.245       .  S
In235       O242   2.257       .  S
In235       O243   2.264       .  S
In235       O244   2.236       .  S
In235       O247   2.227       .  S
C236        O242   1.262       .  A
C236        O244   1.261       .  A
C236       C1442   1.491       .  S
O237        C245   1.258       .  A
O238        C245   1.262       .  A
C239        O246   1.262       .  A
C239        O240   1.261       .  A
C239       C1401   1.485       .  S
C241        O243   1.262       .  A
C241        O247   1.259       .  A
C241       C2402   1.482       .  S
C245       C1369   1.490       .  S
In248       O250   2.241       .  S
In248       O251   2.257       .  S
In248       O259   2.258       .  S
In248       O253   2.239       .  S
In248       O255   2.261       .  S
In248       O256   2.260       .  S
In248       O257   2.227       .  S
In248       O260   2.251       .  S
C249        O255   1.261       .  A
C249        O257   1.259       .  A
C249       C1314   1.492       .  S
O250        C258   1.261       .  A
O251        C258   1.262       .  A
C252        O259   1.262       .  A
C252        O253   1.261       .  A
C252       C1346   1.486       .  S
C254        O256   1.262       .  A
C254        O260   1.259       .  A
C254       C1666   1.481       .  S
C258       C1378   1.485       .  S
In261       O263   2.243       .  S
In261       O264   2.258       .  S
In261       O272   2.249       .  S
In261       O266   2.249       .  S
In261       O268   2.268       .  S
In261       O269   2.261       .  S
In261       O270   2.223   1_554  S
In261       O273   2.226       .  S
C262        O268   1.266   1_556  A
C262        O270   1.256       .  A
C262       C1209   1.494       .  S
O263        C271   1.260       .  A
O264        C271   1.264       .  A
C265        O272   1.262       .  A
C265        O266   1.265       .  A
C265       C1241   1.497       .  S
C267        O269   1.265       .  A
C267        O273   1.261       .  A
C267       C1177   1.485       .  S
C271       C1273   1.488       .  S
In274       O276   2.257       .  S
In274       O277   2.258       .  S
In274       O285   2.269       .  S
In274       O279   2.248       .  S
In274       O281   2.253       .  S
In274       O282   2.282       .  S
In274       O283   2.239       .  S
In274       O286   2.226       .  S
C275        O281   1.262       .  A
C275        O283   1.262       .  A
C275       C1433   1.495   1_556  S
O276        C284   1.262       .  A
O277        C284   1.261       .  A
C278        O285   1.262       .  A
C278        O279   1.258       .  A
C278       C1410   1.488       .  S
C280        O282   1.264       .  A
C280        O286   1.256       .  A
C280       C2306   1.482       .  S
C284       C1282   1.498       .  S
In287       O289   2.227       .  S
In287       O290   2.271       .  S
In287       O298   2.264       .  S
In287       O292   2.246       .  S
In287       O294   2.244       .  S
In287       O295   2.272       .  S
In287       O296   2.244       .  S
In287       O299   2.229       .  S
C288        O294   1.264       .  A
C288        O296   1.258       .  A
C288       C1218   1.490       .  S
O289        C297   1.258       .  A
O290        C297   1.266       .  A
C291        O298   1.262       .  A
C291        O292   1.261       .  A
C291       C1250   1.485       .  S
C293        O295   1.264       .  A
C293        O299   1.257       .  A
C293       C1122   1.483       .  S
C297       C1154   1.483       .  S
In300       O302   2.227       .  S
In300       O303   2.262       .  S
In300       O311   2.248       .  S
In300       O305   2.250       .  S
In300       O307   2.246       .  S
In300       O308   2.276       .  S
In300       O309   2.245       .  S
In300       O312   2.226       .  S
C301        O307   1.261       .  A
C301        O309   1.263       .  A
C301       C1305   1.494       .  S
O302        C310   1.259       .  A
O303        C310   1.265       .  A
C304        O311   1.259       .  A
C304        O305   1.260       .  A
C304       C1337   1.484       .  S
C306        O308   1.263       .  A
C306        O312   1.259       .  A
C306       C1538   1.489       .  S
C310       C1145   1.485       .  S
In313       O315   2.237       .  S
In313       O316   2.257       .  S
In313       O324   2.248       .  S
In313       O318   2.234       .  S
In313       O320   2.239       .  S
In313       O321   2.281       .  S
In313       O322   2.228       .  S
In313       O325   2.227       .  S
C314        O320   1.262       .  A
C314        O322   1.262       .  A
C314       C1058   1.485       .  S
O315        C323   1.261       .  A
O316        C323   1.264       .  A
C317        O324   1.261       .  A
C317        O318   1.261       .  A
C317       C1090   1.479       .  S
C319        O321   1.265       .  A
C319        O325   1.256       .  A
C319        C985   1.485       .  S
C323       C1017   1.492       .  S
In326       O328   2.238       .  S
In326       O329   2.268       .  S
In326       O337   2.258       .  S
In326       O331   2.248       .  S
In326       O333   2.255       .  S
In326       O334   2.270       .  S
In326       O335   2.235       .  S
In326       O338   2.228       .  S
C327        O333   1.261       .  A
C327        O335   1.261       .  A
C327        C953   1.494       .  S
O328        C336   1.257       .  A
O329        C336   1.263       .  A
C330        O337   1.262       .  A
C330        O331   1.260       .  A
C330        C921   1.487       .  S
C332        O334   1.265       .  A
C332        O338   1.259       .  A
C332       C1762   1.493       .  S
C336       C1026   1.489       .  S
In339       O341   2.237       .  S
In339       O342   2.253       .  S
In339       O350   2.258       .  S
In339       O344   2.262       .  S
In339       O346   2.245       .  S
In339       O347   2.276       .  S
In339       O348   2.245       .  S
In339       O351   2.218       .  S
C340        O346   1.262   1_556  A
C340        O348   1.262   1_556  A
C340        C866   1.493       .  S
O341        C349   1.262       .  A
O342        C349   1.262       .  A
C343        O350   1.259       .  A
C343        O344   1.260       .  A
C343        C898   1.491       .  S
C345        O347   1.262       .  A
C345        O351   1.258       .  A
C345       C2329   1.491       .  S
C349        C834   1.492       .  S
In352       O354   2.241       .  S
In352       O355   2.260       .  S
In352       O363   2.243       .  S
In352       O357   2.255       .  S
In352       O359   2.249       .  S
In352       O360   2.264       .  S
In352       O361   2.229       .  S
In352       O364   2.224       .  S
C353        O359   1.263       .  A
C353        O361   1.259       .  A
C353        C962   1.477   1_556  S
O354        C362   1.258       .  A
O355        C362   1.261       .  A
C356        O363   1.261       .  A
C356        O357   1.263       .  A
C356        C930   1.491       .  S
C358        O360   1.264       .  A
C358        O364   1.260       .  A
C358       C1474   1.474       .  S
C362        C825   1.482       .  S
In365       O367   2.235       .  S
In365       O368   2.256       .  S
In365       O376   2.253       .  S
In365       O370   2.255       .  S
In365       O372   2.254       .  S
In365       O373   2.276       .  S
In365       O374   2.229       .  S
In365       O377   2.233       .  S
C366        O372   1.264       .  A
C366        O374   1.262       .  A
C366        C857   1.488       .  S
O367        C375   1.260       .  A
O368        C375   1.263       .  A
C369        O376   1.259       .  A
C369        O370   1.262       .  A
C369        C889   1.490       .  S
C371        O373   1.263       .  A
C371        O377   1.258       .  A
C371       C2658   1.486       .  S
C375        C793   1.487       .  S
In378       O380   2.230       .  S
In378       O381   2.255       .  S
In378       O389   2.240       .  S
In378       O383   2.249       .  S
In378       O385   2.251       .  S
In378       O386   2.257       .  S
In378       O387   2.237       .  S
In378       O390   2.217       .  S
C379        O385   1.264       .  A
C379        O387   1.259       .  A
C379       C1049   1.477       .  S
O380        C388   1.258       .  A
O381        C388   1.265       .  A
C382        O389   1.260       .  A
C382        O383   1.264       .  A
C382       C1081   1.488       .  S
C384        O386   1.266       .  A
C384        O390   1.261       .  A
C384        C770   1.479       .  S
C388        C802   1.487       .  S
In391       O393   2.221       .  S
In391       O394   2.262       .  S
In391       O402   2.243       .  S
In391       O396   2.250       .  S
In391       O398   2.239       .  S
In391       O399   2.262       .  S
In391       O400   2.224       .  S
In391       O403   2.229       .  S
C392        O398   1.262       .  A
C392        O400   1.261       .  A
C392        C697   1.484   1_556  S
O393        C401   1.258       .  A
O394        C401   1.264       .  A
C395        O402   1.261       .  A
C395        O396   1.262       .  A
C395        C729   1.492       .  S
C397        O399   1.263       .  A
C397        O403   1.261       .  A
C397        C665   1.487       .  S
C401       C2082   1.477       .  S
In404       O406   2.215       .  S
In404       O407   2.257       .  S
In404       O415   2.261       .  S
In404       O409   2.247       .  S
In404       O411   2.252       .  S
In404       O412   2.262       .  S
In404       O413   2.226   1_554  S
In404       O416   2.237       .  S
C405        O411   1.265   1_556  A
C405        O413   1.258       .  A
C405        C610   1.480       .  S
O406        C414   1.259       .  A
O407        C414   1.263       .  A
C408        O415   1.261       .  A
C408        O409   1.257       .  A
C408        C642   1.484       .  S
C410        O412   1.262       .  A
C410        O416   1.259       .  A
C410        C674   1.484       .  S
C414       C1186   1.475       .  S
In417       O419   2.230       .  S
In417       O420   2.270       .  S
In417       O428   2.241       .  S
In417       O422   2.239       .  S
In417       O424   2.247       .  S
In417       O425   2.263       .  S
In417       O426   2.232       .  S
In417       O429   2.242       .  S
C418        O424   1.262       .  A
C418        O426   1.259       .  A
C418        C706   1.479       .  S
O419        C427   1.260       .  A
O420        C427   1.264       .  A
C421        O428   1.261       .  A
C421        O422   1.261       .  A
C421        C738   1.468       .  S
C423        O425   1.263       .  A
C423        O429   1.260       .  A
C423        C569   1.499       .  S
C427       C2009   1.493       .  S
In430       O432   2.234       .  S
In430       O433   2.268       .  S
In430       O441   2.252       .  S
In430       O435   2.250       .  S
In430       O437   2.245       .  S
In430       O438   2.276       .  S
In430       O439   2.225       .  S
In430       O442   2.240       .  S
C431        O437   1.264       .  A
C431        O439   1.260       .  A
C431        C505   1.479       .  S
O432        C440   1.261       .  A
O433        C440   1.265       .  A
C434        O441   1.261       .  A
C434        O435   1.261       .  A
C434        C546   1.490       .  S
C436        O438   1.264       .  A
C436        O442   1.258       .  A
C436        C578   1.482       .  S
C440        C994   1.496       .  S
In443       O445   2.224       .  S
In443       O446   2.275       .  S
In443       O454   2.251       .  S
In443       O448   2.238       .  S
In443       O450   2.257       .  S
In443       O451   2.255       .  S
In443       O452   2.234       .  S
In443       O455   2.239       .  S
C444        O450   1.262       .  A
C444        O452   1.262       .  A
C444        C601   1.495       .  S
O445        C453   1.257       .  A
O446        C453   1.265       .  A
C447        O454   1.261       .  A
C447        O448   1.262       .  A
C447        C633   1.484       .  S
C449        O451   1.263       .  A
C449        O455   1.262       .  A
C449        C482   1.496       .  S
C453       C1113   1.488       .  S
In456       O458   2.235       .  S
In456       O459   2.258       .  S
In456       O467   2.245       .  S
In456       O461   2.249       .  S
In456       O463   2.263       .  S
In456       O464   2.258       .  S
In456       O465   2.221       .  S
In456       O468   2.245       .  S
C457        O463   1.263       .  A
C457        O465   1.259       .  A
C457        C514   1.493       .  S
O458        C466   1.260       .  A
O459        C466   1.266       .  A
C460        O467   1.262       .  A
C460        O461   1.265       .  A
C460        C537   1.496       .  S
C462        O464   1.262       .  A
C462        O468   1.260       .  A
C462        C473   1.484       .  S
C466        C761   1.490       .  S
C469        C470   1.401       .  A
C469        C474   1.409       .  A
C469        H479   1.083       .  S
C470        C475   1.488       .  S
C470        C471   1.416       .  A
C471        C472   1.409       .  A
C471        C476   1.519       .  S
C472        C473   1.404       .  A
C472        H477   1.083       .  S
C473        C474   1.421       .  A
C474        C478   1.518       .  S
C475        C480   1.414       .  A
C475        C484   1.401       .  A
C476        F492   1.383       .  S
C476        F493   1.382       .  S
C476        F494   1.385       .  S
C478        F489   1.383       .  S
C478        F490   1.385       .  S
C478        F491   1.383       .  S
C480        C481   1.407       .  A
C480        C485   1.521       .  S
C481        C482   1.408       .  A
C481        H486   1.082       .  S
C482        C483   1.425       .  A
C483        C484   1.412       .  A
C483        C487   1.519       .  S
C484        H488   1.083       .  S
C485        F498   1.384       .  S
C485        F499   1.382       .  S
C485        F500   1.382       .  S
C487        F495   1.384       .  S
C487        F496   1.384       .  S
C487        F497   1.383       .  S
C501        C502   1.400   1_655  A
C501        C506   1.404       .  A
C501        H511   1.083       .  S
C502        C507   1.481       .  S
C502        C503   1.415       .  A
C503        C504   1.406   1_455  A
C503        C508   1.519       .  S
C504        C505   1.405       .  A
C504        H509   1.083       .  S
C505        C506   1.420       .  A
C506        C510   1.520       .  S
C507        C512   1.412       .  A
C507        C516   1.400   1_455  A
C508        F524   1.382       .  S
C508        F525   1.382       .  S
C508        F526   1.385       .  S
C510        F521   1.385       .  S
C510        F522   1.383       .  S
C510        F523   1.384       .  S
C512        C513   1.404       .  A
C512        C517   1.521       .  S
C513        C514   1.410       .  A
C513        H518   1.082       .  S
C514        C515   1.424       .  A
C515        C516   1.409   1_455  A
C515        C519   1.518   1_455  S
C516        H520   1.083       .  S
C517        F530   1.385       .  S
C517        F531   1.382       .  S
C517        F532   1.382       .  S
C519        F527   1.383       .  S
C519        F528   1.383   1_655  S
C519        F529   1.385       .  S
C533        C534   1.401       .  A
C533        C538   1.410       .  A
C533        H543   1.083   1_556  S
C534        C539   1.492   1_556  S
C534        C535   1.416       .  A
C535        C536   1.409       .  A
C535        C540   1.520   1_455  S
C536        C537   1.408       .  A
C536        H541   1.083       .  S
C537        C538   1.425       .  A
C538        C542   1.520       .  S
C539        C544   1.417       .  A
C539        C548   1.402   1_455  A
C540        F556   1.381       .  S
C540        F557   1.383       .  S
C540        F558   1.385       .  S
C542        F553   1.384       .  S
C542        F554   1.385       .  S
C542        F555   1.383       .  S
C544        C545   1.410   1_455  A
C544        C549   1.519       .  S
C545        C546   1.406       .  A
C545        H550   1.083   1_655  S
C546        C547   1.422       .  A
C547        C548   1.408       .  A
C547        C551   1.520       .  S
C548        H552   1.083   1_554  S
C549        F562   1.385       .  S
C549        F563   1.382       .  S
C549        F564   1.382       .  S
C551        F559   1.385       .  S
C551        F560   1.384       .  S
C551        F561   1.383       .  S
C565        C566   1.402       .  A
C565        C570   1.412       .  A
C565        H575   1.083       .  S
C566        C571   1.492       .  S
C566        C567   1.414       .  A
C567        C568   1.408       .  A
C567        C572   1.521       .  S
C568        C569   1.410       .  A
C568        H573   1.082       .  S
C569        C570   1.424       .  A
C570        C574   1.518       .  S
C571        C576   1.418       .  A
C571        C580   1.402       .  A
C572        F588   1.382       .  S
C572        F589   1.382       .  S
C572        F590   1.385       .  S
C574        F585   1.383       .  S
C574        F586   1.384       .  S
C574        F587   1.384       .  S
C576        C577   1.412       .  A
C576        C581   1.518       .  S
C577        C578   1.402       .  A
C577        H582   1.083       .  S
C578        C579   1.419       .  A
C579        C580   1.409       .  A
C579        C583   1.520       .  S
C580        H584   1.083       .  S
C581        F594   1.384       .  S
C581        F595   1.382       .  S
C581        F596   1.383       .  S
C583        F591   1.385       .  S
C583        F592   1.383       .  S
C583        F593   1.382       .  S
C597        C598   1.401       .  A
C597        C602   1.411       .  A
C597        H607   1.083       .  S
C598        C603   1.483       .  S
C598        C599   1.412       .  A
C599        C600   1.404       .  A
C599        C604   1.521       .  S
C600        C601   1.409       .  A
C600        H605   1.082       .  S
C601        C602   1.426       .  A
C602        C606   1.519       .  S
C603        C608   1.415       .  A
C603        C612   1.401       .  A
C604        F620   1.382       .  S
C604        F621   1.382       .  S
C604        F622   1.384       .  S
C606        F617   1.385       .  S
C606        F618   1.383       .  S
C606        F619   1.383       .  S
C608        C609   1.406       .  A
C608        C613   1.519       .  S
C609        C610   1.405       .  A
C609        H614   1.083       .  S
C610        C611   1.421       .  A
C611        C612   1.406       .  A
C611        C615   1.521       .  S
C612        H616   1.083       .  S
C613        F626   1.385       .  S
C613        F627   1.382       .  S
C613        F628   1.382       .  S
C615        F623   1.382       .  S
C615        F624   1.384       .  S
C615        F625   1.385       .  S
C629        C630   1.402       .  A
C629        C634   1.410       .  A
C629        H639   1.083       .  S
C630        C635   1.484       .  S
C630        C631   1.414       .  A
C631        C632   1.405       .  A
C631        C636   1.521       .  S
C632        C633   1.405       .  A
C632        H637   1.083       .  S
C633        C634   1.420       .  A
C634        C638   1.518       .  S
C635        C640   1.415       .  A
C635        C644   1.400       .  A
C636        F652   1.382       .  S
C636        F653   1.381       .  S
C636        F654   1.385       .  S
C638        F649   1.385       .  S
C638        F650   1.383       .  S
C638        F651   1.383       .  S
C640        C641   1.408       .  A
C640        C645   1.519       .  S
C641        C642   1.405       .  A
C641        H646   1.083       .  S
C642        C643   1.422       .  A
C643        C644   1.407       .  A
C643        C647   1.520       .  S
C644        H648   1.083       .  S
C645        F658   1.384       .  S
C645        F659   1.382       .  S
C645        F660   1.382       .  S
C647        F655   1.382       .  S
C647        F656   1.384       .  S
C647        F657   1.385       .  S
C661        C662   1.405       .  A
C661        C666   1.413       .  A
C661        H671   1.083   1_655  S
C662        C667   1.488   1_655  S
C662        C663   1.416       .  A
C663        C664   1.404       .  A
C663        C668   1.522   1_556  S
C664        C665   1.405       .  A
C664        H669   1.083       .  S
C665        C666   1.419       .  A
C666        C670   1.517       .  S
C667        C672   1.416   1_556  A
C667        C676   1.400       .  A
C668        F684   1.381   1_655  S
C668        F685   1.383       .  S
C668        F686   1.384       .  S
C670        F681   1.383       .  S
C670        F682   1.384       .  S
C670        F683   1.383       .  S
C672        C673   1.412       .  A
C672        C677   1.518       .  S
C673        C674   1.406       .  A
C673        H678   1.083       .  S
C674        C675   1.421   1_554  A
C675        C676   1.405       .  A
C675        C679   1.521       .  S
C676        H680   1.083       .  S
C677        F690   1.384       .  S
C677        F691   1.382       .  S
C677        F692   1.382   1_455  S
C679        F687   1.385       .  S
C679        F688   1.383       .  S
C679        F689   1.382   1_556  S
C693        C694   1.401       .  A
C693        C698   1.406       .  A
C693        H703   1.083       .  S
C694        C699   1.479       .  S
C694        C695   1.413       .  A
C695        C696   1.403       .  A
C695        C700   1.521       .  S
C696        C697   1.407       .  A
C696        H701   1.083       .  S
C697        C698   1.422       .  A
C698        C702   1.520       .  S
C699        C704   1.415       .  A
C699        C708   1.399       .  A
C700        F716   1.382       .  S
C700        F717   1.382       .  S
C700        F718   1.385       .  S
C702        F713   1.385       .  S
C702        F714   1.383   1_554  S
C702        F715   1.384   1_554  S
C704        C705   1.406       .  A
C704        C709   1.520       .  S
C705        C706   1.405       .  A
C705        H710   1.083       .  S
C706        C707   1.419       .  A
C707        C708   1.403       .  A
C707        C711   1.519       .  S
C708        H712   1.083       .  S
C709        F722   1.385       .  S
C709        F723   1.382       .  S
C709        F724   1.382       .  S
C711        F719   1.382       .  S
C711        F720   1.384       .  S
C711        F721   1.385       .  S
C725        C726   1.401       .  A
C725        C730   1.408       .  A
C725        H735   1.083       .  S
C726        C731   1.488       .  S
C726        C727   1.415       .  A
C727        C728   1.408       .  A
C727        C732   1.521       .  S
C728        C729   1.408       .  A
C728        H733   1.083       .  S
C729        C730   1.422       .  A
C730        C734   1.518       .  S
C731        C736   1.419       .  A
C731        C740   1.405       .  A
C732        F748   1.382       .  S
C732        F749   1.383       .  S
C732        F750   1.384       .  S
C734        F745   1.384       .  S
C734        F746   1.385       .  S
C734        F747   1.382       .  S
C736        C737   1.407       .  A
C736        C741   1.518       .  S
C737        C738   1.399       .  A
C737        H742   1.083       .  S
C738        C739   1.412       .  A
C739        C740   1.406       .  A
C739        C743   1.518       .  S
C740        H744   1.083       .  S
C741        F754   1.385       .  S
C741        F755   1.381       .  S
C741        F756   1.382       .  S
C743        F751   1.385       .  S
C743        F752   1.383       .  S
C743        F753   1.384       .  S
C757        C758   1.400       .  A
C757        C762   1.408       .  A
C757        H767   1.083       .  S
C758        C763   1.485       .  S
C758        C759   1.414       .  A
C759        C760   1.409       .  A
C759        C764   1.519       .  S
C760        C761   1.408       .  A
C760        H765   1.083       .  S
C761        C762   1.424       .  A
C762        C766   1.520       .  S
C763        C768   1.415       .  A
C763        C772   1.405       .  A
C764        F780   1.382       .  S
C764        F781   1.382       .  S
C764        F782   1.384       .  S
C766        F777   1.383       .  S
C766        F778   1.385       .  S
C766        F779   1.383       .  S
C768        C769   1.402       .  A
C768        C773   1.521       .  S
C769        C770   1.403       .  A
C769        H774   1.083       .  S
C770        C771   1.418       .  A
C771        C772   1.412       .  A
C771        C775   1.518       .  S
C772        H776   1.083       .  S
C773        F786   1.385       .  S
C773        F787   1.382       .  S
C773        F788   1.382       .  S
C775        F783   1.385       .  S
C775        F784   1.384       .  S
C775        F785   1.382       .  S
C789        C790   1.401       .  A
C789        C794   1.409       .  A
C789        H799   1.083       .  S
C790        C795   1.485       .  S
C790        C791   1.415       .  A
C791        C792   1.406       .  A
C791        C796   1.521       .  S
C792        C793   1.407       .  A
C792        H797   1.083       .  S
C793        C794   1.422       .  A
C794        C798   1.519       .  S
C795        C800   1.414       .  A
C795        C804   1.400       .  A
C796        F812   1.382       .  S
C796        F813   1.382       .  S
C796        F814   1.385       .  S
C798        F809   1.382       .  S
C798        F810   1.385       .  S
C798        F811   1.384       .  S
C800        C801   1.408       .  A
C800        C805   1.519       .  S
C801        C802   1.407       .  A
C801        H806   1.083       .  S
C802        C803   1.423       .  A
C803        C804   1.406       .  A
C803        C807   1.520       .  S
C804        H808   1.083       .  S
C805        F818   1.385       .  S
C805        F819   1.382       .  S
C805        F820   1.382       .  S
C807        F815   1.382       .  S
C807        F816   1.382       .  S
C807        F817   1.385       .  S
C821        C822   1.402   1_556  A
C821        C826   1.406       .  A
C821        H831   1.083   1_655  S
C822        C827   1.486   1_655  S
C822        C823   1.416       .  A
C823        C824   1.409   1_554  A
C823        C828   1.519       .  S
C824        C825   1.406       .  A
C824        H829   1.083   1_556  S
C825        C826   1.417       .  A
C826        C830   1.518       .  S
C827        C832   1.415       .  A
C827        C836   1.400       .  A
C828        F844   1.382       .  S
C828        F845   1.382       .  S
C828        F846   1.384       .  S
C830        F841   1.385       .  S
C830        F842   1.384       .  S
C830        F843   1.382       .  S
C832        C833   1.407       .  A
C832        C837   1.520       .  S
C833        C834   1.408       .  A
C833        H838   1.083       .  S
C834        C835   1.424       .  A
C835        C836   1.408       .  A
C835        C839   1.519       .  S
C836        H840   1.083       .  S
C837        F850   1.385       .  S
C837        F851   1.382       .  S
C837        F852   1.382   1_455  S
C839        F847   1.385       .  S
C839        F848   1.383       .  S
C839        F849   1.383       .  S
C853        C854   1.402       .  A
C853        C858   1.411       .  A
C853        H863   1.083       .  S
C854        C859   1.487       .  S
C854        C855   1.414       .  A
C855        C856   1.405       .  A
C855        C860   1.520       .  S
C856        C857   1.406       .  A
C856        H861   1.083       .  S
C857        C858   1.422       .  A
C858        C862   1.519       .  S
C859        C864   1.413       .  A
C859        C868   1.401       .  A
C860        F876   1.382       .  S
C860        F877   1.382       .  S
C860        F878   1.385       .  S
C862        F873   1.385       .  S
C862        F874   1.384       .  S
C862        F875   1.383       .  S
C864        C865   1.407       .  A
C864        C869   1.520       .  S
C865        C866   1.409       .  A
C865        H870   1.082       .  S
C866        C867   1.424       .  A
C867        C868   1.410       .  A
C867        C871   1.520       .  S
C868        H872   1.083       .  S
C869        F882   1.384       .  S
C869        F883   1.382       .  S
C869        F884   1.383       .  S
C871        F879   1.384       .  S
C871        F880   1.384       .  S
C871        F881   1.383   1_556  S
C885        C886   1.402       .  A
C885        C890   1.411       .  A
C885        H895   1.083       .  S
C886        C891   1.489       .  S
C886        C887   1.415       .  A
C887        C888   1.407       .  A
C887        C892   1.519       .  S
C888        C889   1.405       .  A
C888        H893   1.083       .  S
C889        C890   1.423       .  A
C890        C894   1.519       .  S
C891        C896   1.415       .  A
C891        C900   1.401       .  A
C892        F908   1.382       .  S
C892        F909   1.382       .  S
C892        F910   1.384       .  S
C894        F905   1.382       .  S
C894        F906   1.385       .  S
C894        F907   1.384       .  S
C896        C897   1.409       .  A
C896        C901   1.520       .  S
C897        C898   1.407       .  A
C897        H902   1.083       .  S
C898        C899   1.422       .  A
C899        C900   1.411       .  A
C899        C903   1.519       .  S
C900        H904   1.083       .  S
C901        F914   1.384       .  S
C901        F915   1.383       .  S
C901        F916   1.382       .  S
C903        F911   1.385       .  S
C903        F912   1.384       .  S
C903        F913   1.382       .  S
C917        C918   1.402       .  A
C917        C922   1.410       .  A
C917        H927   1.083       .  S
C918        C923   1.487       .  S
C918        C919   1.416       .  A
C919        C920   1.408       .  A
C919        C924   1.521       .  S
C920        C921   1.405       .  A
C920        H925   1.083       .  S
C921        C922   1.421       .  A
C922        C926   1.518       .  S
C923        C928   1.414       .  A
C923        C932   1.399       .  A
C924        F940   1.383       .  S
C924        F941   1.381       .  S
C924        F942   1.384       .  S
C926        F937   1.384       .  S
C926        F938   1.383       .  S
C926        F939   1.383       .  S
C928        C929   1.410       .  A
C928        C933   1.519       .  S
C929        C930   1.408       .  A
C929        H934   1.083       .  S
C930        C931   1.423       .  A
C931        C932   1.408       .  A
C931        C935   1.519       .  S
C932        H936   1.083       .  S
C933        F946   1.385       .  S
C933        F947   1.383       .  S
C933        F948   1.381       .  S
C935        F943   1.383       .  S
C935        F944   1.383       .  S
C935        F945   1.385       .  S
C949        C950   1.400       .  A
C949        C954   1.409       .  A
C949        H959   1.083       .  S
C950        C955   1.482       .  S
C950        C951   1.411       .  A
C951        C952   1.404       .  A
C951        C956   1.520       .  S
C952        C953   1.410       .  A
C952        H957   1.082       .  S
C953        C954   1.425       .  A
C954        C958   1.519       .  S
C955        C960   1.415       .  A
C955        C964   1.402       .  A
C956        F972   1.383       .  S
C956        F973   1.382       .  S
C956        F974   1.384       .  S
C958        F969   1.383       .  S
C958        F970   1.385       .  S
C958        F971   1.383       .  S
C960        C961   1.404       .  A
C960        C965   1.520       .  S
C961        C962   1.403       .  A
C961        H966   1.082       .  S
C962        C963   1.417       .  A
C963        C964   1.407       .  A
C963        C967   1.518       .  S
C964        H968   1.083       .  S
C965        F978   1.385       .  S
C965        F979   1.382       .  S
C965        F980   1.382       .  S
C967        F975   1.384       .  S
C967        F976   1.383   1_554  S
C967        F977   1.384       .  S
C981        C982   1.400       .  A
C981        C986   1.406       .  A
C981        H991   1.083       .  S
C982        C987   1.491       .  S
C982        C983   1.417       .  A
C983        C984   1.413       .  A
C983        C988   1.518       .  S
C984        C985   1.405       .  A
C984        H989   1.083       .  S
C985        C986   1.421       .  A
C986        C990   1.520       .  S
C987        C992   1.415       .  A
C987        C996   1.403       .  A
C988       F1004   1.382       .  S
C988       F1005   1.382       .  S
C988       F1006   1.384       .  S
C990       F1001   1.382       .  S
C990       F1002   1.385       .  S
C990       F1003   1.384       .  S
C992        C993   1.406       .  A
C992        C997   1.521       .  S
C993        C994   1.408       .  A
C993        H998   1.083       .  S
C994        C995   1.424       .  A
C995        C996   1.414       .  A
C995        C999   1.518       .  S
C996       H1000   1.083       .  S
C997       F1010   1.385       .  S
C997       F1011   1.382       .  S
C997       F1012   1.382       .  S
C999       F1007   1.385       .  S
C999       F1008   1.384       .  S
C999       F1009   1.383       .  S
C1013      C1014   1.401       .  A
C1013      C1018   1.410       .  A
C1013      H1023   1.083       .  S
C1014      C1019   1.490       .  S
C1014      C1015   1.416       .  A
C1015      C1016   1.408       .  A
C1015      C1020   1.521       .  S
C1016      C1017   1.407       .  A
C1016      H1021   1.083       .  S
C1017      C1018   1.423       .  A
C1018      C1022   1.518       .  S
C1019      C1024   1.416       .  A
C1019      C1028   1.402       .  A
C1020      F1036   1.382       .  S
C1020      F1037   1.382       .  S
C1020      F1038   1.385       .  S
C1022      F1033   1.383       .  S
C1022      F1034   1.384       .  S
C1022      F1035   1.384       .  S
C1024      C1025   1.410       .  A
C1024      C1029   1.519       .  S
C1025      C1026   1.407       .  A
C1025      H1030   1.083       .  S
C1026      C1027   1.421       .  A
C1027      C1028   1.408       .  A
C1027      C1031   1.519       .  S
C1028      H1032   1.083       .  S
C1029      F1042   1.384       .  S
C1029      F1043   1.382       .  S
C1029      F1044   1.383       .  S
C1031      F1039   1.384       .  S
C1031      F1040   1.383       .  S
C1031      F1041   1.385       .  S
C1045      C1046   1.402       .  A
C1045      C1050   1.407       .  A
C1045      H1055   1.083       .  S
C1046      C1051   1.482   1_455  S
C1046      C1047   1.415       .  A
C1047      C1048   1.407       .  A
C1047      C1052   1.520       .  S
C1048      C1049   1.404       .  A
C1048      H1053   1.083       .  S
C1049      C1050   1.416       .  A
C1050      C1054   1.518       .  S
C1051      C1056   1.414       .  A
C1051      C1060   1.401   1_655  A
C1052      F1068   1.383       .  S
C1052      F1069   1.382   1_455  S
C1052      F1070   1.384       .  S
C1054      F1065   1.384       .  S
C1054      F1066   1.384       .  S
C1054      F1067   1.382       .  S
C1056      C1057   1.404       .  A
C1056      C1061   1.521       .  S
C1057      C1058   1.406       .  A
C1057      H1062   1.083       .  S
C1058      C1059   1.422       .  A
C1059      C1060   1.409   1_655  A
C1059      C1063   1.520   1_655  S
C1060      H1064   1.083       .  S
C1061      F1074   1.385       .  S
C1061      F1075   1.382       .  S
C1061      F1076   1.382       .  S
C1063      F1071   1.384       .  S
C1063      F1072   1.384       .  S
C1063      F1073   1.383       .  S
C1077      C1078   1.401   1_455  A
C1077      C1082   1.408       .  A
C1077      H1087   1.083       .  S
C1078      C1083   1.486   1_556  S
C1078      C1079   1.415       .  A
C1079      C1080   1.406       .  A
C1079      C1084   1.520       .  S
C1080      C1081   1.405   1_655  A
C1080      H1085   1.083       .  S
C1081      C1082   1.422       .  A
C1082      C1086   1.518       .  S
C1083      C1088   1.417       .  A
C1083      C1092   1.403       .  A
C1084      F1100   1.382       .  S
C1084      F1101   1.383       .  S
C1084      F1102   1.384       .  S
C1086      F1097   1.383       .  S
C1086      F1098   1.385       .  S
C1086      F1099   1.382       .  S
C1088      C1089   1.404       .  A
C1088      C1093   1.520   1_655  S
C1089      C1090   1.403       .  A
C1089      H1094   1.083       .  S
C1090      C1091   1.418       .  A
C1091      C1092   1.408       .  A
C1091      C1095   1.518       .  S
C1092      H1096   1.083   1_554  S
C1093      F1106   1.385       .  S
C1093      F1107   1.382       .  S
C1093      F1108   1.383   1_554  S
C1095      F1103   1.385       .  S
C1095      F1104   1.384       .  S
C1095      F1105   1.383       .  S
C1109      C1110   1.400       .  A
C1109      C1114   1.406       .  A
C1109      H1119   1.083       .  S
C1110      C1115   1.488       .  S
C1110      C1111   1.415       .  A
C1111      C1112   1.412       .  A
C1111      C1116   1.518       .  S
C1112      C1113   1.407       .  A
C1112      H1117   1.083       .  S
C1113      C1114   1.422       .  A
C1114      C1118   1.521       .  S
C1115      C1120   1.417       .  A
C1115      C1124   1.402       .  A
C1116      F1132   1.382       .  S
C1116      F1133   1.382       .  S
C1116      F1134   1.384       .  S
C1118      F1129   1.385       .  S
C1118      F1130   1.383       .  S
C1118      F1131   1.384       .  S
C1120      C1121   1.410       .  A
C1120      C1125   1.520       .  S
C1121      C1122   1.404       .  A
C1121      H1126   1.083       .  S
C1122      C1123   1.419       .  A
C1123      C1124   1.408       .  A
C1123      C1127   1.519       .  S
C1124      H1128   1.083       .  S
C1125      F1138   1.384       .  S
C1125      F1139   1.382       .  S
C1125      F1140   1.382       .  S
C1127      F1135   1.383       .  S
C1127      F1136   1.384       .  S
C1127      F1137   1.384       .  S
C1141      C1142   1.400       .  A
C1141      C1146   1.406       .  A
C1141      H1151   1.083       .  S
C1142      C1147   1.488       .  S
C1142      C1143   1.418       .  A
C1143      C1144   1.410       .  A
C1143      C1148   1.519       .  S
C1144      C1145   1.404       .  A
C1144      H1149   1.083       .  S
C1145      C1146   1.422       .  A
C1146      C1150   1.521       .  S
C1147      C1152   1.418       .  A
C1147      C1156   1.401       .  A
C1148      F1164   1.382       .  S
C1148      F1165   1.382       .  S
C1148      F1166   1.385       .  S
C1150      F1161   1.384       .  S
C1150      F1162   1.383       .  S
C1150      F1163   1.384       .  S
C1152      C1153   1.411       .  A
C1152      C1157   1.519       .  S
C1153      C1154   1.404       .  A
C1153      H1158   1.083       .  S
C1154      C1155   1.420       .  A
C1155      C1156   1.406       .  A
C1155      C1159   1.521       .  S
C1156      H1160   1.083       .  S
C1157      F1170   1.384       .  S
C1157      F1171   1.382       .  S
C1157      F1172   1.382       .  S
C1159      F1167   1.382       .  S
C1159      F1168   1.384       .  S
C1159      F1169   1.385       .  S
C1173      C1174   1.401       .  A
C1173      C1178   1.410       .  A
C1173      H1183   1.083       .  S
C1174      C1179   1.483       .  S
C1174      C1175   1.414       .  A
C1175      C1176   1.404       .  A
C1175      C1180   1.521       .  S
C1176      C1177   1.406       .  A
C1176      H1181   1.083       .  S
C1177      C1178   1.420       .  A
C1178      C1182   1.518       .  S
C1179      C1184   1.415       .  A
C1179      C1188   1.404       .  A
C1180      F1196   1.382       .  S
C1180      F1197   1.383       .  S
C1180      F1198   1.384       .  S
C1182      F1193   1.385       .  S
C1182      F1194   1.382       .  S
C1182      F1195   1.383   1_554  S
C1184      C1185   1.401       .  A
C1184      C1189   1.521   1_554  S
C1185      C1186   1.402       .  A
C1185      H1190   1.083       .  S
C1186      C1187   1.416       .  A
C1187      C1188   1.410       .  A
C1187      C1191   1.517       .  S
C1188      H1192   1.083       .  S
C1189      F1202   1.385       .  S
C1189      F1203   1.382       .  S
C1189      F1204   1.382   1_556  S
C1191      F1199   1.383       .  S
C1191      F1200   1.384       .  S
C1191      F1201   1.384       .  S
C1205      C1206   1.397       .  A
C1205      C1210   1.406       .  A
C1205      H1215   1.083       .  S
C1206      C1211   1.485       .  S
C1206      C1207   1.414       .  A
C1207      C1208   1.409       .  A
C1207      C1212   1.519       .  S
C1208      C1209   1.409       .  A
C1208      H1213   1.082       .  S
C1209      C1210   1.428       .  A
C1210      C1214   1.521       .  S
C1211      C1216   1.414       .  A
C1211      C1220   1.400       .  A
C1212      F1228   1.382       .  S
C1212      F1229   1.383       .  S
C1212      F1230   1.385       .  S
C1214      F1225   1.383       .  S
C1214      F1226   1.385       .  S
C1214      F1227   1.383       .  S
C1216      C1217   1.405       .  A
C1216      C1221   1.520       .  S
C1217      C1218   1.406       .  A
C1217      H1222   1.082       .  S
C1218      C1219   1.425       .  A
C1219      C1220   1.409       .  A
C1219      C1223   1.521       .  S
C1220      H1224   1.083       .  S
C1221      F1234   1.385       .  S
C1221      F1235   1.382       .  S
C1221      F1236   1.382       .  S
C1223      F1231   1.385       .  S
C1223      F1232   1.384       .  S
C1223      F1233   1.382       .  S
C1237      C1238   1.402       .  A
C1237      C1242   1.412       .  A
C1237      H1247   1.083       .  S
C1238      C1243   1.493       .  S
C1238      C1239   1.415       .  A
C1239      C1240   1.408       .  A
C1239      C1244   1.519       .  S
C1240      C1241   1.408       .  A
C1240      H1245   1.082       .  S
C1241      C1242   1.425       .  A
C1242      C1246   1.519       .  S
C1243      C1248   1.417       .  A
C1243      C1252   1.405       .  A
C1244      F1260   1.382       .  S
C1244      F1261   1.383       .  S
C1244      F1262   1.384       .  S
C1246      F1257   1.385       .  S
C1246      F1258   1.383       .  S
C1246      F1259   1.383       .  S
C1248      C1249   1.407       .  A
C1248      C1253   1.519       .  S
C1249      C1250   1.403       .  A
C1249      H1254   1.083       .  S
C1250      C1251   1.418       .  A
C1251      C1252   1.413       .  A
C1251      C1255   1.517       .  S
C1252      H1256   1.083       .  S
C1253      F1266   1.385       .  S
C1253      F1267   1.382       .  S
C1253      F1268   1.383       .  S
C1255      F1263   1.383       .  S
C1255      F1264   1.382       .  S
C1255      F1265   1.385       .  S
C1269      C1270   1.403   1_554  A
C1269      C1274   1.410       .  A
C1269      H1279   1.083       .  S
C1270      C1275   1.492       .  S
C1270      C1271   1.416       .  A
C1271      C1272   1.410       .  A
C1271      C1276   1.519       .  S
C1272      C1273   1.406   1_556  A
C1272      H1277   1.083       .  S
C1273      C1274   1.420       .  A
C1274      C1278   1.518       .  S
C1275      C1280   1.416       .  A
C1275      C1284   1.401       .  A
C1276      F1292   1.382       .  S
C1276      F1293   1.382       .  S
C1276      F1294   1.385       .  S
C1278      F1289   1.385       .  S
C1278      F1290   1.383       .  S
C1278      F1291   1.382       .  S
C1280      C1281   1.410       .  A
C1280      C1285   1.520       .  S
C1281      C1282   1.408       .  A
C1281      H1286   1.083       .  S
C1282      C1283   1.425       .  A
C1283      C1284   1.411       .  A
C1283      C1287   1.519       .  S
C1284      H1288   1.083       .  S
C1285      F1298   1.384       .  S
C1285      F1299   1.382       .  S
C1285      F1300   1.382       .  S
C1287      F1295   1.383       .  S
C1287      F1296   1.383       .  S
C1287      F1297   1.385       .  S
C1301      C1302   1.402       .  A
C1301      C1306   1.410       .  A
C1301      H1311   1.083       .  S
C1302      C1307   1.489       .  S
C1302      C1303   1.415       .  A
C1303      C1304   1.407       .  A
C1303      C1308   1.520       .  S
C1304      C1305   1.408       .  A
C1304      H1309   1.082       .  S
C1305      C1306   1.425       .  A
C1306      C1310   1.520       .  S
C1307      C1312   1.415       .  A
C1307      C1316   1.403       .  A
C1308      F1324   1.382       .  S
C1308      F1325   1.383       .  S
C1308      F1326   1.384       .  S
C1310      F1321   1.383       .  S
C1310      F1322   1.385       .  S
C1310      F1323   1.383       .  S
C1312      C1313   1.403       .  A
C1312      C1317   1.521       .  S
C1313      C1314   1.407       .  A
C1313      H1318   1.082       .  S
C1314      C1315   1.423       .  A
C1315      C1316   1.411       .  A
C1315      C1319   1.519       .  S
C1316      H1320   1.083       .  S
C1317      F1330   1.385       .  S
C1317      F1331   1.381       .  S
C1317      F1332   1.382       .  S
C1319      F1327   1.385       .  S
C1319      F1328   1.383       .  S
C1319      F1329   1.384       .  S
C1333      C1334   1.401       .  A
C1333      C1338   1.408       .  A
C1333      H1343   1.083       .  S
C1334      C1339   1.485       .  S
C1334      C1335   1.415       .  A
C1335      C1336   1.407       .  A
C1335      C1340   1.520       .  S
C1336      C1337   1.405       .  A
C1336      H1341   1.083       .  S
C1337      C1338   1.420       .  A
C1338      C1342   1.518       .  S
C1339      C1344   1.415   1_556  A
C1339      C1348   1.402       .  A
C1340      F1356   1.382       .  S
C1340      F1357   1.382       .  S
C1340      F1358   1.385       .  S
C1342      F1353   1.382       .  S
C1342      F1354   1.385       .  S
C1342      F1355   1.384       .  S
C1344      C1345   1.405       .  A
C1344      C1349   1.520       .  S
C1345      C1346   1.405       .  A
C1345      H1350   1.083       .  S
C1346      C1347   1.420       .  A
C1347      C1348   1.410   1_554  A
C1347      C1351   1.518       .  S
C1348      H1352   1.083       .  S
C1349      F1362   1.385       .  S
C1349      F1363   1.382   1_554  S
C1349      F1364   1.382   1_554  S
C1351      F1359   1.385   1_554  S
C1351      F1360   1.384       .  S
C1351      F1361   1.382       .  S
C1365      C1366   1.402       .  A
C1365      C1370   1.409       .  A
C1365      H1375   1.083       .  S
C1366      C1371   1.486       .  S
C1366      C1367   1.413       .  A
C1367      C1368   1.406       .  A
C1367      C1372   1.519       .  S
C1368      C1369   1.407       .  A
C1368      H1373   1.082       .  S
C1369      C1370   1.424       .  A
C1370      C1374   1.520       .  S
C1371      C1376   1.416       .  A
C1371      C1380   1.400       .  A
C1372      F1388   1.382       .  S
C1372      F1389   1.382       .  S
C1372      F1390   1.384       .  S
C1374      F1385   1.383       .  S
C1374      F1386   1.385       .  S
C1374      F1387   1.384       .  S
C1376      C1377   1.407       .  A
C1376      C1381   1.520       .  S
C1377      C1378   1.405       .  A
C1377      H1382   1.083       .  S
C1378      C1379   1.421       .  A
C1379      C1380   1.408       .  A
C1379      C1383   1.519       .  S
C1380      H1384   1.083       .  S
C1381      F1394   1.385       .  S
C1381      F1395   1.382       .  S
C1381      F1396   1.382       .  S
C1383      F1391   1.385       .  S
C1383      F1392   1.383       .  S
C1383      F1393   1.383       .  S
C1397      C1398   1.402       .  A
C1397      C1402   1.408       .  A
C1397      H1407   1.083       .  S
C1398      C1403   1.489       .  S
C1398      C1399   1.416       .  A
C1399      C1400   1.408       .  A
C1399      C1404   1.519       .  S
C1400      C1401   1.405       .  A
C1400      H1405   1.083       .  S
C1401      C1402   1.420       .  A
C1402      C1406   1.519       .  S
C1403      C1408   1.417       .  A
C1403      C1412   1.400       .  A
C1404      F1420   1.382       .  S
C1404      F1421   1.382       .  S
C1404      F1422   1.385       .  S
C1406      F1417   1.383       .  S
C1406      F1418   1.385       .  S
C1406      F1419   1.384       .  S
C1408      C1409   1.411       .  A
C1408      C1413   1.520       .  S
C1409      C1410   1.406       .  A
C1409      H1414   1.083       .  S
C1410      C1411   1.422       .  A
C1411      C1412   1.408       .  A
C1411      C1415   1.520       .  S
C1412      H1416   1.083       .  S
C1413      F1426   1.384       .  S
C1413      F1427   1.382       .  S
C1413      F1428   1.382       .  S
C1415      F1423   1.385       .  S
C1415      F1424   1.384       .  S
C1415      F1425   1.382       .  S
C1429      C1430   1.401       .  A
C1429      C1434   1.410       .  A
C1429      H1439   1.083       .  S
C1430      C1435   1.486       .  S
C1430      C1431   1.413       .  A
C1431      C1432   1.407       .  A
C1431      C1436   1.521       .  S
C1432      C1433   1.410       .  A
C1432      H1437   1.082       .  S
C1433      C1434   1.424       .  A
C1434      C1438   1.519   1_554  S
C1435      C1440   1.414       .  A
C1435      C1444   1.402       .  A
C1436      F1452   1.382       .  S
C1436      F1453   1.382       .  S
C1436      F1454   1.385       .  S
C1438      F1449   1.385   1_556  S
C1438      F1450   1.383       .  S
C1438      F1451   1.383       .  S
C1440      C1441   1.406       .  A
C1440      C1445   1.520       .  S
C1441      C1442   1.407       .  A
C1441      H1446   1.083       .  S
C1442      C1443   1.423       .  A
C1443      C1444   1.410       .  A
C1443      C1447   1.519       .  S
C1444      H1448   1.083       .  S
C1445      F1458   1.385       .  S
C1445      F1459   1.382       .  S
C1445      F1460   1.382       .  S
C1447      F1455   1.385       .  S
C1447      F1456   1.384       .  S
C1447      F1457   1.382       .  S
C1461      C1462   1.400       .  A
C1461      C1466   1.412       .  A
C1461      H1471   1.083       .  S
C1462      C1467   1.486       .  S
C1462      C1463   1.415       .  A
C1463      C1464   1.404       .  A
C1463      C1468   1.522       .  S
C1464      C1465   1.408       .  A
C1464      H1469   1.082       .  S
C1465      C1466   1.425       .  A
C1466      C1470   1.518       .  S
C1467      C1472   1.417       .  A
C1467      C1476   1.401       .  A
C1468      F1484   1.382       .  S
C1468      F1485   1.383       .  S
C1468      F1486   1.385       .  S
C1470      F1481   1.385       .  S
C1470      F1482   1.383       .  S
C1470      F1483   1.384       .  S
C1472      C1473   1.411       .  A
C1472      C1477   1.517       .  S
C1473      C1474   1.403       .  A
C1473      H1478   1.083       .  S
C1474      C1475   1.414       .  A
C1475      C1476   1.403       .  A
C1475      C1479   1.517       .  S
C1476      H1480   1.084       .  S
C1477      F1490   1.385       .  S
C1477      F1491   1.382       .  S
C1477      F1492   1.382       .  S
C1479      F1487   1.384       .  S
C1479      F1488   1.381       .  S
C1479      F1489   1.384   1_556  S
C1493      C1494   1.400       .  A
C1493      C1498   1.410       .  A
C1493      H1503   1.083       .  S
C1494      C1499   1.487       .  S
C1494      C1495   1.415   1_556  A
C1495      C1496   1.408       .  A
C1495      C1500   1.520       .  S
C1496      C1497   1.406       .  A
C1496      H1501   1.083       .  S
C1497      C1498   1.424   1_554  A
C1498      C1502   1.520       .  S
C1499      C1504   1.414       .  A
C1499      C1508   1.400       .  A
C1500      F1516   1.383       .  S
C1500      F1517   1.382       .  S
C1500      F1518   1.384       .  S
C1502      F1513   1.384       .  S
C1502      F1514   1.385       .  S
C1502      F1515   1.383       .  S
C1504      C1505   1.408       .  A
C1504      C1509   1.521       .  S
C1505      C1506   1.408       .  A
C1505      H1510   1.083       .  S
C1506      C1507   1.425       .  A
C1507      C1508   1.410       .  A
C1507      C1511   1.519       .  S
C1508      H1512   1.083   1_556  S
C1509      F1522   1.384       .  S
C1509      F1523   1.383       .  S
C1509      F1524   1.382       .  S
C1511      F1519   1.385   1_556  S
C1511      F1520   1.383       .  S
C1511      F1521   1.383   1_556  S
C1525      C1526   1.401       .  A
C1525      C1530   1.408       .  A
C1525      H1535   1.083       .  S
C1526      C1531   1.488       .  S
C1526      C1527   1.414       .  A
C1527      C1528   1.409       .  A
C1527      C1532   1.517       .  S
C1528      C1529   1.405       .  A
C1528      H1533   1.083       .  S
C1529      C1530   1.423       .  A
C1530      C1534   1.520       .  S
C1531      C1536   1.415       .  A
C1531      C1540   1.403       .  A
C1532      F1548   1.383       .  S
C1532      F1549   1.382       .  S
C1532      F1550   1.384       .  S
C1534      F1545   1.385       .  S
C1534      F1546   1.384       .  S
C1534      F1547   1.382       .  S
C1536      C1537   1.404       .  A
C1536      C1541   1.521       .  S
C1537      C1538   1.405       .  A
C1537      H1542   1.083       .  S
C1538      C1539   1.422       .  A
C1539      C1540   1.413       .  A
C1539      C1543   1.518       .  S
C1540      H1544   1.083       .  S
C1541      F1554   1.385       .  S
C1541      F1555   1.382       .  S
C1541      F1556   1.382       .  S
C1543      F1551   1.385       .  S
C1543      F1552   1.383       .  S
C1543      F1553   1.383       .  S
C1557      C1558   1.403       .  A
C1557      C1562   1.414       .  A
C1557      H1567   1.083       .  S
C1558      C1563   1.494       .  S
C1558      C1559   1.416       .  A
C1559      C1560   1.408       .  A
C1559      C1564   1.519       .  S
C1560      C1561   1.406       .  A
C1560      H1565   1.083       .  S
C1561      C1562   1.425       .  A
C1562      C1566   1.520       .  S
C1563      C1568   1.417       .  A
C1563      C1572   1.401       .  A
C1564      F1580   1.382       .  S
C1564      F1581   1.382       .  S
C1564      F1582   1.385       .  S
C1566      F1577   1.382       .  S
C1566      F1578   1.384       .  S
C1566      F1579   1.383       .  S
C1568      C1569   1.412       .  A
C1568      C1573   1.519       .  S
C1569      C1570   1.406       .  A
C1569      H1574   1.083       .  S
C1570      C1571   1.423       .  A
C1571      C1572   1.412       .  A
C1571      C1575   1.518       .  S
C1572      H1576   1.083       .  S
C1573      F1586   1.384       .  S
C1573      F1587   1.383       .  S
C1573      F1588   1.382       .  S
C1575      F1583   1.385       .  S
C1575      F1584   1.383       .  S
C1575      F1585   1.383       .  S
C1589      C1590   1.397       .  A
C1589      C1594   1.406       .  A
C1589      H1599   1.083       .  S
C1590      C1595   1.483       .  S
C1590      C1591   1.413       .  A
C1591      C1592   1.407       .  A
C1591      C1596   1.519       .  S
C1592      C1593   1.408       .  A
C1592      H1597   1.082       .  S
C1593      C1594   1.428       .  A
C1594      C1598   1.520       .  S
C1595      C1600   1.416       .  A
C1595      C1604   1.401       .  A
C1596      F1612   1.382       .  S
C1596      F1613   1.382       .  S
C1596      F1614   1.384       .  S
C1598      F1609   1.383       .  S
C1598      F1610   1.385       .  S
C1598      F1611   1.382       .  S
C1600      C1601   1.405       .  A
C1600      C1605   1.521       .  S
C1601      C1602   1.404       .  A
C1601      H1606   1.083       .  S
C1602      C1603   1.418       .  A
C1603      C1604   1.408       .  A
C1603      C1607   1.518       .  S
C1604      H1608   1.083       .  S
C1605      F1618   1.384       .  S
C1605      F1619   1.382       .  S
C1605      F1620   1.382       .  S
C1607      F1615   1.385       .  S
C1607      F1616   1.382       .  S
C1607      F1617   1.384       .  S
C1621      C1622   1.400       .  A
C1621      C1626   1.409       .  A
C1621      H1631   1.083       .  S
C1622      C1627   1.490       .  S
C1622      C1623   1.415       .  A
C1623      C1624   1.411       .  A
C1623      C1628   1.520       .  S
C1624      C1625   1.410       .  A
C1624      H1629   1.083       .  S
C1625      C1626   1.424       .  A
C1626      C1630   1.519       .  S
C1627      C1632   1.417       .  A
C1627      C1636   1.403       .  A
C1628      F1644   1.382       .  S
C1628      F1645   1.382       .  S
C1628      F1646   1.385       .  S
C1630      F1641   1.383       .  S
C1630      F1642   1.385       .  S
C1630      F1643   1.383       .  S
C1632      C1633   1.408       .  A
C1632      C1637   1.520       .  S
C1633      C1634   1.405       .  A
C1633      H1638   1.083       .  S
C1634      C1635   1.420       .  A
C1635      C1636   1.412       .  A
C1635      C1639   1.518       .  S
C1636      H1640   1.083       .  S
C1637      F1650   1.384       .  S
C1637      F1651   1.382       .  S
C1637      F1652   1.382       .  S
C1639      F1647   1.384       .  S
C1639      F1648   1.384       .  S
C1639      F1649   1.382       .  S
C1653      C1654   1.403       .  A
C1653      C1658   1.413       .  A
C1653      H1663   1.083       .  S
C1654      C1659   1.489       .  S
C1654      C1655   1.415       .  A
C1655      C1656   1.404       .  A
C1655      C1660   1.521       .  S
C1656      C1657   1.406       .  A
C1656      H1661   1.083       .  S
C1657      C1658   1.424       .  A
C1658      C1662   1.518       .  S
C1659      C1664   1.417       .  A
C1659      C1668   1.401       .  A
C1660      F1676   1.382       .  S
C1660      F1677   1.383       .  S
C1660      F1678   1.384       .  S
C1662      F1673   1.383       .  S
C1662      F1674   1.385       .  S
C1662      F1675   1.383       .  S
C1664      C1665   1.410       .  A
C1664      C1669   1.519       .  S
C1665      C1666   1.403       .  A
C1665      H1670   1.083       .  S
C1666      C1667   1.418       .  A
C1667      C1668   1.408       .  A
C1667      C1671   1.518       .  S
C1668      H1672   1.083       .  S
C1669      F1682   1.384       .  S
C1669      F1683   1.383       .  S
C1669      F1684   1.383       .  S
C1671      F1679   1.384       .  S
C1671      F1680   1.382       .  S
C1671      F1681   1.383       .  S
C1685      C1686   1.398       .  A
C1685      C1690   1.404       .  A
C1685      H1695   1.083       .  S
C1686      C1691   1.481       .  S
C1686      C1687   1.415       .  A
C1687      C1688   1.407       .  A
C1687      C1692   1.520       .  S
C1688      C1689   1.407       .  A
C1688      H1693   1.083       .  S
C1689      C1690   1.422       .  A
C1690      C1694   1.519       .  S
C1691      C1696   1.414       .  A
C1691      C1700   1.402       .  A
C1692      F1708   1.382       .  S
C1692      F1709   1.382       .  S
C1692      F1710   1.385       .  S
C1694      F1705   1.385       .  S
C1694      F1706   1.382       .  S
C1694      F1707   1.384       .  S
C1696      C1697   1.403       .  A
C1696      C1701   1.521       .  S
C1697      C1698   1.407       .  A
C1697      H1702   1.083       .  S
C1698      C1699   1.420       .  A
C1699      C1700   1.408       .  A
C1699      C1703   1.518       .  S
C1700      H1704   1.083       .  S
C1701      F1714   1.385       .  S
C1701      F1715   1.382       .  S
C1701      F1716   1.382       .  S
C1703      F1711   1.385       .  S
C1703      F1712   1.383       .  S
C1703      F1713   1.384       .  S
C1717      C1718   1.403       .  A
C1717      C1722   1.409       .  A
C1717      H1727   1.083       .  S
C1718      C1723   1.493   1_554  S
C1718      C1719   1.417       .  A
C1719      C1720   1.409       .  A
C1719      C1724   1.519       .  S
C1720      C1721   1.404       .  A
C1720      H1725   1.083       .  S
C1721      C1722   1.420       .  A
C1722      C1726   1.519       .  S
C1723      C1728   1.416       .  A
C1723      C1732   1.401       .  A
C1724      F1740   1.382       .  S
C1724      F1741   1.383       .  S
C1724      F1742   1.384       .  S
C1726      F1737   1.385       .  S
C1726      F1738   1.384       .  S
C1726      F1739   1.382       .  S
C1728      C1729   1.409       .  A
C1728      C1733   1.520       .  S
C1729      C1730   1.409       .  A
C1729      H1734   1.082       .  S
C1730      C1731   1.427       .  A
C1731      C1732   1.411       .  A
C1731      C1735   1.520       .  S
C1732      H1736   1.083   1_556  S
C1733      F1746   1.384       .  S
C1733      F1747   1.382       .  S
C1733      F1748   1.383       .  S
C1735      F1743   1.385       .  S
C1735      F1744   1.383       .  S
C1735      F1745   1.383       .  S
C1749      C1750   1.403       .  A
C1749      C1754   1.412       .  A
C1749      H1759   1.083       .  S
C1750      C1755   1.491       .  S
C1750      C1751   1.416       .  A
C1751      C1752   1.409       .  A
C1751      C1756   1.521       .  S
C1752      C1753   1.407       .  A
C1752      H1757   1.083       .  S
C1753      C1754   1.420       .  A
C1754      C1758   1.517       .  S
C1755      C1760   1.416       .  A
C1755      C1764   1.400       .  A
C1756      F1772   1.382       .  S
C1756      F1773   1.382       .  S
C1756      F1774   1.385       .  S
C1758      F1769   1.385       .  S
C1758      F1770   1.383       .  S
C1758      F1771   1.383       .  S
C1760      C1761   1.413       .  A
C1760      C1765   1.518       .  S
C1761      C1762   1.408       .  A
C1761      H1766   1.083       .  S
C1762      C1763   1.424       .  A
C1763      C1764   1.407       .  A
C1763      C1767   1.521       .  S
C1764      H1768   1.083       .  S
C1765      F1778   1.385       .  S
C1765      F1779   1.382       .  S
C1765      F1780   1.381       .  S
C1767      F1775   1.385       .  S
C1767      F1776   1.384       .  S
C1767      F1777   1.383       .  S
C1781      C1782   1.405       .  A
C1781      C1786   1.415       .  A
C1781      H1791   1.083       .  S
C1782      C1787   1.495       .  S
C1782      C1783   1.417       .  A
C1783      C1784   1.408       .  A
C1783      C1788   1.521       .  S
C1784      C1785   1.407       .  A
C1784      H1789   1.083       .  S
C1785      C1786   1.420       .  A
C1786      C1790   1.516       .  S
C1787      C1792   1.417       .  A
C1787      C1796   1.401       .  A
C1788      F1804   1.382       .  S
C1788      F1805   1.383       .  S
C1788      F1806   1.384       .  S
C1790      F1801   1.382       .  S
C1790      F1802   1.385       .  S
C1790      F1803   1.383       .  S
C1792      C1793   1.411       .  A
C1792      C1797   1.518       .  S
C1793      C1794   1.405       .  A
C1793      H1798   1.083       .  S
C1794      C1795   1.424       .  A
C1795      C1796   1.410       .  A
C1795      C1799   1.521       .  S
C1796      H1800   1.083       .  S
C1797      F1810   1.385       .  S
C1797      F1811   1.382       .  S
C1797      F1812   1.382       .  S
C1799      F1807   1.385       .  S
C1799      F1808   1.384       .  S
C1799      F1809   1.383       .  S
C1813      C1814   1.401       .  A
C1813      C1818   1.411       .  A
C1813      H1823   1.083       .  S
C1814      C1819   1.489       .  S
C1814      C1815   1.414       .  A
C1815      C1816   1.409       .  A
C1815      C1820   1.520       .  S
C1816      C1817   1.409       .  A
C1816      H1821   1.082       .  S
C1817      C1818   1.425       .  A
C1818      C1822   1.520       .  S
C1819      C1824   1.417       .  A
C1819      C1828   1.404       .  A
C1820      F1836   1.382       .  S
C1820      F1837   1.382       .  S
C1820      F1838   1.384       .  S
C1822      F1833   1.385       .  S
C1822      F1834   1.384       .  S
C1822      F1835   1.383       .  S
C1824      C1825   1.407       .  A
C1824      C1829   1.521       .  S
C1825      C1826   1.404       .  A
C1825      H1830   1.083       .  S
C1826      C1827   1.418       .  A
C1827      C1828   1.410       .  A
C1827      C1831   1.518       .  S
C1828      H1832   1.083       .  S
C1829      F1842   1.385       .  S
C1829      F1843   1.382       .  S
C1829      F1844   1.382       .  S
C1831      F1839   1.384       .  S
C1831      F1840   1.384       .  S
C1831      F1841   1.383       .  S
C1845      C1846   1.401       .  A
C1845      C1850   1.410       .  A
C1845      H1855   1.083       .  S
C1846      C1851   1.490       .  S
C1846      C1847   1.416       .  A
C1847      C1848   1.408       .  A
C1847      C1852   1.520       .  S
C1848      C1849   1.406       .  A
C1848      H1853   1.083       .  S
C1849      C1850   1.423       .  A
C1850      C1854   1.519       .  S
C1851      C1856   1.416       .  A
C1851      C1860   1.401       .  A
C1852      F1868   1.382       .  S
C1852      F1869   1.382       .  S
C1852      F1870   1.385       .  S
C1854      F1865   1.385       .  S
C1854      F1866   1.383       .  S
C1854      F1867   1.384       .  S
C1856      C1857   1.409       .  A
C1856      C1861   1.519       .  S
C1857      C1858   1.407       .  A
C1857      H1862   1.083       .  S
C1858      C1859   1.424       .  A
C1859      C1860   1.409       .  A
C1859      C1863   1.520       .  S
C1860      H1864   1.083       .  S
C1861      F1874   1.385       .  S
C1861      F1875   1.382       .  S
C1861      F1876   1.382       .  S
C1863      F1871   1.383       .  S
C1863      F1872   1.384       .  S
C1863      F1873   1.385       .  S
C1877      C1878   1.400       .  A
C1877      C1882   1.407       .  A
C1877      H1887   1.083       .  S
C1878      C1883   1.489       .  S
C1878      C1879   1.416       .  A
C1879      C1880   1.410       .  A
C1879      C1884   1.518       .  S
C1880      C1881   1.406       .  A
C1880      H1885   1.083       .  S
C1881      C1882   1.423       .  A
C1882      C1886   1.520       .  S
C1883      C1888   1.416       .  A
C1883      C1892   1.403       .  A
C1884      F1900   1.382       .  S
C1884      F1901   1.383       .  S
C1884      F1902   1.384       .  S
C1886      F1897   1.383       .  S
C1886      F1898   1.385       .  S
C1886      F1899   1.382       .  S
C1888      C1889   1.406       .  A
C1888      C1893   1.520       .  S
C1889      C1890   1.405       .  A
C1889      H1894   1.083       .  S
C1890      C1891   1.420       .  A
C1891      C1892   1.411       .  A
C1891      C1895   1.518       .  S
C1892      H1896   1.083       .  S
C1893      F1906   1.385       .  S
C1893      F1907   1.382       .  S
C1893      F1908   1.383       .  S
C1895      F1903   1.385       .  S
C1895      F1904   1.384       .  S
C1895      F1905   1.382       .  S
C1909      C1910   1.401       .  A
C1909      C1914   1.412       .  A
C1909      H1919   1.083       .  S
C1910      C1915   1.493       .  S
C1910      C1911   1.416       .  A
C1911      C1912   1.411       .  A
C1911      C1916   1.521       .  S
C1912      C1913   1.409       .  A
C1912      H1917   1.083       .  S
C1913      C1914   1.424       .  A
C1914      C1918   1.518       .  S
C1915      C1920   1.416       .  A
C1915      C1924   1.402       .  A
C1916      F1932   1.382       .  S
C1916      F1933   1.381       .  S
C1916      F1934   1.385       .  S
C1918      F1929   1.383       .  S
C1918      F1930   1.385       .  S
C1918      F1931   1.383       .  S
C1920      C1921   1.413       .  A
C1920      C1925   1.519       .  S
C1921      C1922   1.408       .  A
C1921      H1926   1.083       .  S
C1922      C1923   1.421       .  A
C1923      C1924   1.409       .  A
C1923      C1927   1.519       .  S
C1924      H1928   1.083       .  S
C1925      F1938   1.384       .  S
C1925      F1939   1.382       .  S
C1925      F1940   1.382       .  S
C1927      F1935   1.384       .  S
C1927      F1936   1.383       .  S
C1927      F1937   1.384       .  S
C1941      C1942   1.402   1_565  A
C1941      C1946   1.410   1_565  A
C1941      H1951   1.083       .  S
C1942      C1947   1.485       .  S
C1942      C1943   1.413       .  A
C1943      C1944   1.404       .  A
C1943      C1948   1.520       .  S
C1944      C1945   1.409       .  A
C1944      H1949   1.082       .  S
C1945      C1946   1.423       .  A
C1946      C1950   1.519   1_545  S
C1947      C1952   1.416   1_545  A
C1947      C1956   1.403   1_545  A
C1948      F1964   1.382       .  S
C1948      F1965   1.382       .  S
C1948      F1966   1.385       .  S
C1950      F1961   1.383       .  S
C1950      F1962   1.385       .  S
C1950      F1963   1.383       .  S
C1952      C1953   1.406       .  A
C1952      C1957   1.520       .  S
C1953      C1954   1.403       .  A
C1953      H1958   1.082       .  S
C1954      C1955   1.417       .  A
C1955      C1956   1.410       .  A
C1955      C1959   1.518       .  S
C1956      H1960   1.083   1_565  S
C1957      F1970   1.385       .  S
C1957      F1971   1.382       .  S
C1957      F1972   1.382   1_565  S
C1959      F1967   1.384       .  S
C1959      F1968   1.382       .  S
C1959      F1969   1.384       .  S
C1973      C1974   1.402       .  A
C1973      C1978   1.410       .  A
C1973      H1983   1.083   1_554  S
C1974      C1979   1.490   1_544  S
C1974      C1975   1.415       .  A
C1975      C1976   1.410       .  A
C1975      C1980   1.519   1_545  S
C1976      C1977   1.406       .  A
C1976      H1981   1.083       .  S
C1977      C1978   1.421       .  A
C1978      C1982   1.519       .  S
C1979      C1984   1.416       .  A
C1979      C1988   1.401   1_565  A
C1980      F1996   1.383       .  S
C1980      F1997   1.382       .  S
C1980      F1998   1.384       .  S
C1982      F1993   1.385       .  S
C1982      F1994   1.383       .  S
C1982      F1995   1.383       .  S
C1984      C1985   1.410       .  A
C1984      C1989   1.520       .  S
C1985      C1986   1.407       .  A
C1985      H1990   1.083       .  S
C1986      C1987   1.423       .  A
C1987      C1988   1.410   1_565  A
C1987      C1991   1.518   1_565  S
C1988      H1992   1.083       .  S
C1989      F2002   1.384       .  S
C1989      F2003   1.382   1_556  S
C1989      F2004   1.382   1_556  S
C1991      F1999   1.383       .  S
C1991      F2000   1.384   1_545  S
C1991      F2001   1.385       .  S
C2005      C2006   1.402       .  A
C2005      C2010   1.412       .  A
C2005      H2015   1.083       .  S
C2006      C2011   1.485       .  S
C2006      C2007   1.414       .  A
C2007      C2008   1.405       .  A
C2007      C2012   1.522       .  S
C2008      C2009   1.407       .  A
C2008      H2013   1.082       .  S
C2009      C2010   1.423       .  A
C2010      C2014   1.518       .  S
C2011      C2016   1.416       .  A
C2011      C2020   1.400       .  A
C2012      F2028   1.382       .  S
C2012      F2029   1.381       .  S
C2012      F2030   1.384       .  S
C2014      F2025   1.383       .  S
C2014      F2026   1.385       .  S
C2014      F2027   1.383       .  S
C2016      C2017   1.412       .  A
C2016      C2021   1.518       .  S
C2017      C2018   1.406       .  A
C2017      H2022   1.083       .  S
C2018      C2019   1.419       .  A
C2019      C2020   1.403       .  A
C2019      C2023   1.519       .  S
C2020      H2024   1.084       .  S
C2021      F2034   1.385       .  S
C2021      F2035   1.382       .  S
C2021      F2036   1.381       .  S
C2023      F2031   1.385       .  S
C2023      F2032   1.383       .  S
C2023      F2033   1.382       .  S
C2037      C2038   1.400       .  A
C2037      C2042   1.411       .  A
C2037      H2047   1.083       .  S
C2038      C2043   1.489       .  S
C2038      C2039   1.415       .  A
C2039      C2040   1.408       .  A
C2039      C2044   1.521       .  S
C2040      C2041   1.408       .  A
C2040      H2045   1.083       .  S
C2041      C2042   1.425       .  A
C2042      C2046   1.519       .  S
C2043      C2048   1.414       .  A
C2043      C2052   1.401       .  A
C2044      F2060   1.383       .  S
C2044      F2061   1.382       .  S
C2044      F2062   1.384       .  S
C2046      F2057   1.383       .  S
C2046      F2058   1.385       .  S
C2046      F2059   1.384       .  S
C2048      C2049   1.409       .  A
C2048      C2053   1.519       .  S
C2049      C2050   1.408       .  A
C2049      H2054   1.083       .  S
C2050      C2051   1.422       .  A
C2051      C2052   1.409       .  A
C2051      C2055   1.518       .  S
C2052      H2056   1.083       .  S
C2053      F2066   1.384       .  S
C2053      F2067   1.382       .  S
C2053      F2068   1.382       .  S
C2055      F2063   1.384       .  S
C2055      F2064   1.383       .  S
C2055      F2065   1.385       .  S
C2069      C2070   1.402       .  A
C2069      C2074   1.411       .  A
C2069      H2079   1.083       .  S
C2070      C2075   1.485       .  S
C2070      C2071   1.414       .  A
C2071      C2072   1.403       .  A
C2071      C2076   1.522       .  S
C2072      C2073   1.408       .  A
C2072      H2077   1.082       .  S
C2073      C2074   1.423       .  A
C2074      C2078   1.518       .  S
C2075      C2080   1.416       .  A
C2075      C2084   1.401       .  A
C2076      F2092   1.382       .  S
C2076      F2093   1.382       .  S
C2076      F2094   1.385       .  S
C2078      F2089   1.383       .  S
C2078      F2090   1.385       .  S
C2078      F2091   1.383       .  S
C2080      C2081   1.409       .  A
C2080      C2085   1.519       .  S
C2081      C2082   1.403       .  A
C2081      H2086   1.083       .  S
C2082      C2083   1.418       .  A
C2083      C2084   1.405       .  A
C2083      C2087   1.520       .  S
C2084      H2088   1.083       .  S
C2085      F2098   1.385       .  S
C2085      F2099   1.382       .  S
C2085      F2100   1.382       .  S
C2087      F2095   1.385       .  S
C2087      F2096   1.384       .  S
C2087      F2097   1.382       .  S
C2101      C2102   1.404       .  A
C2101      C2106   1.412       .  A
C2101      H2111   1.083       .  S
C2102      C2107   1.497       .  S
C2102      C2103   1.419       .  A
C2103      C2104   1.410       .  A
C2103      C2108   1.520       .  S
C2104      C2105   1.405       .  A
C2104      H2109   1.083       .  S
C2105      C2106   1.420       .  A
C2106      C2110   1.518       .  S
C2107      C2112   1.418       .  A
C2107      C2116   1.403       .  A
C2108      F2124   1.382       .  S
C2108      F2125   1.382       .  S
C2108      F2126   1.385       .  S
C2110      F2121   1.384       .  S
C2110      F2122   1.382       .  S
C2110      F2123   1.384       .  S
C2112      C2113   1.412       .  A
C2112      C2117   1.519       .  S
C2113      C2114   1.406       .  A
C2113      H2118   1.083       .  S
C2114      C2115   1.423       .  A
C2115      C2116   1.411       .  A
C2115      C2119   1.520       .  S
C2116      H2120   1.083       .  S
C2117      F2130   1.384       .  S
C2117      F2131   1.382       .  S
C2117      F2132   1.383       .  S
C2119      F2127   1.382       .  S
C2119      F2128   1.384       .  S
C2119      F2129   1.385       .  S
C2133      C2134   1.402       .  A
C2133      C2138   1.411       .  A
C2133      H2143   1.083       .  S
C2134      C2139   1.489       .  S
C2134      C2135   1.413       .  A
C2135      C2136   1.407       .  A
C2135      C2140   1.520       .  S
C2136      C2137   1.409       .  A
C2136      H2141   1.082       .  S
C2137      C2138   1.424       .  A
C2138      C2142   1.520   1_554  S
C2139      C2144   1.415       .  A
C2139      C2148   1.404       .  A
C2140      F2156   1.382       .  S
C2140      F2157   1.382       .  S
C2140      F2158   1.384       .  S
C2142      F2153   1.384       .  S
C2142      F2154   1.384   1_556  S
C2142      F2155   1.383       .  S
C2144      C2145   1.406       .  A
C2144      C2149   1.521       .  S
C2145      C2146   1.405       .  A
C2145      H2150   1.081       .  S
C2146      C2147   1.419       .  A
C2147      C2148   1.411       .  A
C2147      C2151   1.517       .  S
C2148      H2152   1.083       .  S
C2149      F2162   1.385       .  S
C2149      F2163   1.382       .  S
C2149      F2164   1.382       .  S
C2151      F2159   1.385       .  S
C2151      F2160   1.383       .  S
C2151      F2161   1.383       .  S
C2165      C2166   1.402       .  A
C2165      C2170   1.410       .  A
C2165      H2175   1.083       .  S
C2166      C2171   1.485       .  S
C2166      C2167   1.414       .  A
C2167      C2168   1.406       .  A
C2167      C2172   1.519       .  S
C2168      C2169   1.405       .  A
C2168      H2173   1.083       .  S
C2169      C2170   1.420       .  A
C2170      C2174   1.518       .  S
C2171      C2176   1.415       .  A
C2171      C2180   1.402       .  A
C2172      F2188   1.383       .  S
C2172      F2189   1.382       .  S
C2172      F2190   1.384       .  S
C2174      F2185   1.383   1_554  S
C2174      F2186   1.385   1_554  S
C2174      F2187   1.383       .  S
C2176      C2177   1.405       .  A
C2176      C2181   1.521       .  S
C2177      C2178   1.405       .  A
C2177      H2182   1.083       .  S
C2178      C2179   1.420       .  A
C2179      C2180   1.410       .  A
C2179      C2183   1.518       .  S
C2180      H2184   1.083       .  S
C2181      F2194   1.385   1_554  S
C2181      F2195   1.382   1_554  S
C2181      F2196   1.382       .  S
C2183      F2191   1.383       .  S
C2183      F2192   1.384       .  S
C2183      F2193   1.384       .  S
C2197      C2198   1.399       .  A
C2197      C2202   1.405       .  A
C2197      H2207   1.083       .  S
C2198      C2203   1.483       .  S
C2198      C2199   1.414       .  A
C2199      C2200   1.408       .  A
C2199      C2204   1.520       .  S
C2200      C2201   1.406       .  A
C2200      H2205   1.083       .  S
C2201      C2202   1.422       .  A
C2202      C2206   1.520       .  S
C2203      C2208   1.414       .  A
C2203      C2212   1.398       .  A
C2204      F2220   1.382       .  S
C2204      F2221   1.383       .  S
C2204      F2222   1.384       .  S
C2206      F2217   1.383       .  S
C2206      F2218   1.385       .  S
C2206      F2219   1.383       .  S
C2208      C2209   1.406       .  A
C2208      C2213   1.520       .  S
C2209      C2210   1.407       .  A
C2209      H2214   1.082       .  S
C2210      C2211   1.428       .  A
C2211      C2212   1.407       .  A
C2211      C2215   1.522       .  S
C2212      H2216   1.083       .  S
C2213      F2226   1.384       .  S
C2213      F2227   1.382       .  S
C2213      F2228   1.382       .  S
C2215      F2223   1.382       .  S
C2215      F2224   1.384       .  S
C2215      F2225   1.385       .  S
C2229      C2230   1.404       .  A
C2229      C2234   1.411       .  A
C2229      H2239   1.083       .  S
C2230      C2235   1.493       .  S
C2230      C2231   1.418       .  A
C2231      C2232   1.410       .  A
C2231      C2236   1.520       .  S
C2232      C2233   1.405       .  A
C2232      H2237   1.083       .  S
C2233      C2234   1.419       .  A
C2234      C2238   1.518       .  S
C2235      C2240   1.417       .  A
C2235      C2244   1.401       .  A
C2236      F2252   1.382       .  S
C2236      F2253   1.382       .  S
C2236      F2254   1.385       .  S
C2238      F2249   1.385       .  S
C2238      F2250   1.382       .  S
C2238      F2251   1.384       .  S
C2240      C2241   1.414       .  A
C2240      C2245   1.519       .  S
C2241      C2242   1.408       .  A
C2241      H2246   1.083       .  S
C2242      C2243   1.422       .  A
C2243      C2244   1.408       .  A
C2243      C2247   1.520       .  S
C2244      H2248   1.083       .  S
C2245      F2258   1.384       .  S
C2245      F2259   1.382       .  S
C2245      F2260   1.382       .  S
C2247      F2255   1.382       .  S
C2247      F2256   1.384       .  S
C2247      F2257   1.385       .  S
C2261      C2262   1.402       .  A
C2261      C2266   1.412   1_556  A
C2261      H2271   1.083       .  S
C2262      C2267   1.490   1_565  S
C2262      C2263   1.416   1_556  A
C2263      C2264   1.407       .  A
C2263      C2268   1.521       .  S
C2264      C2265   1.406       .  A
C2264      H2269   1.083       .  S
C2265      C2266   1.424       .  A
C2266      C2270   1.520   1_554  S
C2267      C2272   1.414       .  A
C2267      C2276   1.401       .  A
C2268      F2284   1.382   1_564  S
C2268      F2285   1.382   1_565  S
C2268      F2286   1.384       .  S
C2270      F2281   1.383   1_556  S
C2270      F2282   1.384       .  S
C2270      F2283   1.384       .  S
C2272      C2273   1.410       .  A
C2272      C2277   1.520   1_556  S
C2273      C2274   1.409       .  A
C2273      H2278   1.083       .  S
C2274      C2275   1.423       .  A
C2275      C2276   1.410       .  A
C2275      C2279   1.519       .  S
C2276      H2280   1.083   1_545  S
C2277      F2290   1.384       .  S
C2277      F2291   1.382       .  S
C2277      F2292   1.382       .  S
C2279      F2287   1.385       .  S
C2279      F2288   1.384       .  S
C2279      F2289   1.382       .  S
C2293      C2294   1.403       .  A
C2293      C2298   1.410       .  A
C2293      H2303   1.083       .  S
C2294      C2299   1.485       .  S
C2294      C2295   1.416       .  A
C2295      C2296   1.406       .  A
C2295      C2300   1.521       .  S
C2296      C2297   1.404       .  A
C2296      H2301   1.083       .  S
C2297      C2298   1.420       .  A
C2298      C2302   1.519       .  S
C2299      C2304   1.416       .  A
C2299      C2308   1.399       .  A
C2300      F2316   1.382       .  S
C2300      F2317   1.381       .  S
C2300      F2318   1.385       .  S
C2302      F2313   1.383       .  S
C2302      F2314   1.385       .  S
C2302      F2315   1.384       .  S
C2304      C2305   1.413       .  A
C2304      C2309   1.519       .  S
C2305      C2306   1.406       .  A
C2305      H2310   1.083       .  S
C2306      C2307   1.419       .  A
C2307      C2308   1.403       .  A
C2307      C2311   1.520       .  S
C2308      H2312   1.084       .  S
C2309      F2322   1.385       .  S
C2309      F2323   1.383       .  S
C2309      F2324   1.381       .  S
C2311      F2319   1.385   1_556  S
C2311      F2320   1.383       .  S
C2311      F2321   1.382       .  S
C2325      C2326   1.401       .  A
C2325      C2330   1.412       .  A
C2325      H2335   1.083       .  S
C2326      C2331   1.480       .  S
C2326      C2327   1.412       .  A
C2327      C2328   1.400       .  A
C2327      C2332   1.523       .  S
C2328      C2329   1.407       .  A
C2328      H2333   1.082       .  S
C2329      C2330   1.424       .  A
C2330      C2334   1.518       .  S
C2331      C2336   1.416       .  A
C2331      C2340   1.402       .  A
C2332      F2348   1.382       .  S
C2332      F2349   1.382       .  S
C2332      F2350   1.384       .  S
C2334      F2345   1.383       .  S
C2334      F2346   1.385       .  S
C2334      F2347   1.383       .  S
C2336      C2337   1.405       .  A
C2336      C2341   1.519   1_554  S
C2337      C2338   1.401       .  A
C2337      H2342   1.083       .  S
C2338      C2339   1.414       .  A
C2339      C2340   1.406       .  A
C2339      C2343   1.518       .  S
C2340      H2344   1.083       .  S
C2341      F2354   1.385       .  S
C2341      F2355   1.382       .  S
C2341      F2356   1.382       .  S
C2343      F2351   1.382       .  S
C2343      F2352   1.383       .  S
C2343      F2353   1.385       .  S
C2357      C2358   1.403       .  A
C2357      C2362   1.407       .  A
C2357      H2367   1.083   1_545  S
C2358      C2363   1.483   1_546  S
C2358      C2359   1.415   1_556  A
C2359      C2360   1.407   1_554  A
C2359      C2364   1.520       .  S
C2360      C2361   1.404       .  A
C2360      H2365   1.083   1_556  S
C2361      C2362   1.416       .  A
C2362      C2366   1.518       .  S
C2363      C2368   1.414   1_554  A
C2363      C2372   1.401       .  A
C2364      F2380   1.382       .  S
C2364      F2381   1.381       .  S
C2364      F2382   1.385       .  S
C2366      F2377   1.385       .  S
C2366      F2378   1.382       .  S
C2366      F2379   1.384       .  S
C2368      C2369   1.408   1_556  A
C2368      C2373   1.519       .  S
C2369      C2370   1.408       .  A
C2369      H2374   1.083       .  S
C2370      C2371   1.421       .  A
C2371      C2372   1.406       .  A
C2371      C2375   1.519       .  S
C2372      H2376   1.084       .  S
C2373      F2386   1.385       .  S
C2373      F2387   1.382       .  S
C2373      F2388   1.382       .  S
C2375      F2383   1.383       .  S
C2375      F2384   1.384       .  S
C2375      F2385   1.385       .  S
C2389      C2390   1.398       .  A
C2389      C2394   1.405       .  A
C2389      H2399   1.083       .  S
C2390      C2395   1.484       .  S
C2390      C2391   1.414       .  A
C2391      C2392   1.409       .  A
C2391      C2396   1.519       .  S
C2392      C2393   1.408       .  A
C2392      H2397   1.083       .  S
C2393      C2394   1.424       .  A
C2394      C2398   1.520       .  S
C2395      C2400   1.417       .  A
C2395      C2404   1.402       .  A
C2396      F2412   1.382       .  S
C2396      F2413   1.383       .  S
C2396      F2414   1.384       .  S
C2398      F2409   1.383       .  S
C2398      F2410   1.385       .  S
C2398      F2411   1.383       .  S
C2400      C2401   1.403       .  A
C2400      C2405   1.522       .  S
C2401      C2402   1.404       .  A
C2401      H2406   1.083       .  S
C2402      C2403   1.420       .  A
C2403      C2404   1.410       .  A
C2403      C2407   1.518       .  S
C2404      H2408   1.083       .  S
C2405      F2418   1.385       .  S
C2405      F2419   1.382       .  S
C2405      F2420   1.382       .  S
C2407      F2415   1.385       .  S
C2407      F2416   1.383       .  S
C2407      F2417   1.383       .  S
C2421      C2422   1.401       .  A
C2421      C2426   1.407       .  A
C2421      H2431   1.083       .  S
C2422      C2427   1.491       .  S
C2422      C2423   1.416       .  A
C2423      C2424   1.412       .  A
C2423      C2428   1.518       .  S
C2424      C2425   1.407       .  A
C2424      H2429   1.083       .  S
C2425      C2426   1.422       .  A
C2426      C2430   1.520       .  S
C2427      C2432   1.416       .  A
C2427      C2436   1.402       .  A
C2428      F2444   1.382       .  S
C2428      F2445   1.382       .  S
C2428      F2446   1.385       .  S
C2430      F2441   1.383       .  S
C2430      F2442   1.385       .  S
C2430      F2443   1.383       .  S
C2432      C2433   1.409       .  A
C2432      C2437   1.520       .  S
C2433      C2434   1.407       .  A
C2433      H2438   1.083       .  S
C2434      C2435   1.425       .  A
C2435      C2436   1.411       .  A
C2435      C2439   1.520       .  S
C2436      H2440   1.083       .  S
C2437      F2450   1.384       .  S
C2437      F2451   1.382       .  S
C2437      F2452   1.382       .  S
C2439      F2447   1.385       .  S
C2439      F2448   1.384       .  S
C2439      F2449   1.383       .  S
C2453      C2454   1.401       .  A
C2453      C2458   1.406       .  A
C2453      H2463   1.083       .  S
C2454      C2459   1.485       .  S
C2454      C2455   1.415       .  A
C2455      C2456   1.409       .  A
C2455      C2460   1.519       .  S
C2456      C2457   1.405       .  A
C2456      H2461   1.083       .  S
C2457      C2458   1.420       .  A
C2458      C2462   1.519       .  S
C2459      C2464   1.412       .  A
C2459      C2468   1.403       .  A
C2460      F2476   1.382       .  S
C2460      F2477   1.383       .  S
C2460      F2478   1.384       .  S
C2462      F2473   1.384       .  S
C2462      F2474   1.385       .  S
C2462      F2475   1.382       .  S
C2464      C2465   1.402       .  A
C2464      C2469   1.521       .  S
C2465      C2466   1.408       .  A
C2465      H2470   1.082       .  S
C2466      C2467   1.424       .  A
C2467      C2468   1.413       .  A
C2467      C2471   1.519       .  S
C2468      H2472   1.083       .  S
C2469      F2482   1.384       .  S
C2469      F2483   1.382       .  S
C2469      F2484   1.383       .  S
C2471      F2479   1.385       .  S
C2471      F2480   1.383       .  S
C2471      F2481   1.384       .  S
C2485      C2486   1.402       .  A
C2485      C2490   1.407       .  A
C2485      H2495   1.083       .  S
C2486      C2491   1.495       .  S
C2486      C2487   1.419       .  A
C2487      C2488   1.412       .  A
C2487      C2492   1.518       .  S
C2488      C2489   1.405       .  A
C2488      H2493   1.083       .  S
C2489      C2490   1.418       .  A
C2490      C2494   1.517       .  S
C2491      C2496   1.417       .  A
C2491      C2500   1.403       .  A
C2492      F2508   1.382       .  S
C2492      F2509   1.382       .  S
C2492      F2510   1.385       .  S
C2494      F2505   1.381       .  S
C2494      F2506   1.384       .  S
C2494      F2507   1.384       .  S
C2496      C2497   1.408       .  A
C2496      C2501   1.521       .  S
C2497      C2498   1.408       .  A
C2497      H2502   1.083       .  S
C2498      C2499   1.424       .  A
C2499      C2500   1.415       .  A
C2499      C2503   1.518       .  S
C2500      H2504   1.083       .  S
C2501      F2514   1.385       .  S
C2501      F2515   1.382       .  S
C2501      F2516   1.383       .  S
C2503      F2511   1.383       .  S
C2503      F2512   1.383       .  S
C2503      F2513   1.385       .  S
C2517      C2518   1.402       .  A
C2517      C2522   1.411       .  A
C2517      H2527   1.083       .  S
C2518      C2523   1.486       .  S
C2518      C2519   1.414       .  A
C2519      C2520   1.406       .  A
C2519      C2524   1.520       .  S
C2520      C2521   1.406       .  A
C2520      H2525   1.083       .  S
C2521      C2522   1.423       .  A
C2522      C2526   1.519       .  S
C2523      C2528   1.417       .  A
C2523      C2532   1.400       .  A
C2524      F2540   1.382       .  S
C2524      F2541   1.381       .  S
C2524      F2542   1.385       .  S
C2526      F2537   1.383       .  S
C2526      F2538   1.385       .  S
C2526      F2539   1.383       .  S
C2528      C2529   1.409       .  A
C2528      C2533   1.519       .  S
C2529      C2530   1.403       .  A
C2529      H2534   1.083       .  S
C2530      C2531   1.420       .  A
C2531      C2532   1.407       .  A
C2531      C2535   1.519       .  S
C2532      H2536   1.083       .  S
C2533      F2546   1.385       .  S
C2533      F2547   1.382       .  S
C2533      F2548   1.381       .  S
C2535      F2543   1.385       .  S
C2535      F2544   1.383       .  S
C2535      F2545   1.383       .  S
C2549      C2550   1.404       .  A
C2549      C2554   1.413       .  A
C2549      H2559   1.083       .  S
C2550      C2555   1.491       .  S
C2550      C2551   1.416       .  A
C2551      C2552   1.408       .  A
C2551      C2556   1.522       .  S
C2552      C2553   1.407       .  A
C2552      H2557   1.083       .  S
C2553      C2554   1.421       .  A
C2554      C2558   1.517       .  S
C2555      C2560   1.414       .  A
C2555      C2564   1.400       .  A
C2556      F2572   1.382       .  S
C2556      F2573   1.381       .  S
C2556      F2574   1.385       .  S
C2558      F2569   1.385       .  S
C2558      F2570   1.383       .  S
C2558      F2571   1.383       .  S
C2560      C2561   1.412       .  A
C2560      C2565   1.518       .  S
C2561      C2562   1.408       .  A
C2561      H2566   1.083       .  S
C2562      C2563   1.427       .  A
C2563      C2564   1.409       .  A
C2563      C2567   1.521       .  S
C2564      H2568   1.083       .  S
C2565      F2578   1.384       .  S
C2565      F2579   1.382       .  S
C2565      F2580   1.381       .  S
C2567      F2575   1.385       .  S
C2567      F2576   1.383       .  S
C2567      F2577   1.383       .  S
C2581      C2582   1.399   1_545  A
C2581      C2586   1.407       .  A
C2581      H2591   1.083       .  S
C2582      C2587   1.478   1_565  S
C2582      C2583   1.411       .  A
C2583      C2584   1.403       .  A
C2583      C2588   1.521       .  S
C2584      C2585   1.408       .  A
C2584      H2589   1.083       .  S
C2585      C2586   1.425   1_565  A
C2586      C2590   1.521       .  S
C2587      C2592   1.414       .  A
C2587      C2596   1.399       .  A
C2588      F2604   1.382       .  S
C2588      F2605   1.382       .  S
C2588      F2606   1.384       .  S
C2590      F2601   1.383   1_545  S
C2590      F2602   1.385       .  S
C2590      F2603   1.383       .  S
C2592      C2593   1.406       .  A
C2592      C2597   1.521   1_545  S
C2593      C2594   1.405       .  A
C2593      H2598   1.083       .  S
C2594      C2595   1.422       .  A
C2595      C2596   1.404       .  A
C2595      C2599   1.521       .  S
C2596      H2600   1.083       .  S
C2597      F2610   1.384       .  S
C2597      F2611   1.382       .  S
C2597      F2612   1.382       .  S
C2599      F2607   1.383       .  S
C2599      F2608   1.384       .  S
C2599      F2609   1.385       .  S
C2613      C2614   1.404       .  A
C2613      C2618   1.411       .  A
C2613      H2623   1.083       .  S
C2614      C2619   1.486   1_566  S
C2614      C2615   1.416       .  A
C2615      C2616   1.406       .  A
C2615      C2620   1.521   1_565  S
C2616      C2617   1.404       .  A
C2616      H2621   1.083       .  S
C2617      C2618   1.417       .  A
C2618      C2622   1.517       .  S
C2619      C2624   1.414       .  A
C2619      C2628   1.399   1_545  A
C2620      F2636   1.382   1_545  S
C2620      F2637   1.382       .  S
C2620      F2638   1.384       .  S
C2622      F2633   1.384       .  S
C2622      F2634   1.382       .  S
C2622      F2635   1.384       .  S
C2624      C2625   1.409       .  A
C2624      C2629   1.519   1_554  S
C2625      C2626   1.407       .  A
C2625      H2630   1.083       .  S
C2626      C2627   1.424   1_545  A
C2627      C2628   1.408       .  A
C2627      C2631   1.519       .  S
C2628      H2632   1.083       .  S
C2629      F2642   1.384   1_556  S
C2629      F2643   1.382       .  S
C2629      F2644   1.382       .  S
C2631      F2639   1.383       .  S
C2631      F2640   1.382       .  S
C2631      F2641   1.385       .  S
C2645      C2646   1.397       .  A
C2645      C2650   1.403       .  A
C2645      H2655   1.084       .  S
C2646      C2651   1.485       .  S
C2646      C2647   1.413       .  A
C2647      C2648   1.412       .  A
C2647      C2652   1.517       .  S
C2648      C2649   1.409       .  A
C2648      H2653   1.083       .  S
C2649      C2650   1.424       .  A
C2650      C2654   1.521       .  S
C2651      C2656   1.416       .  A
C2651      C2660   1.402       .  A
C2652      F2668   1.383       .  S
C2652      F2669   1.382       .  S
C2652      F2670   1.384       .  S
C2654      F2665   1.385       .  S
C2654      F2666   1.384       .  S
C2654      F2667   1.383       .  S
C2656      C2657   1.405       .  A
C2656      C2661   1.522       .  S
C2657      C2658   1.405       .  A
C2657      H2662   1.083       .  S
C2658      C2659   1.420       .  A
C2659      C2660   1.412       .  A
C2659      C2663   1.517       .  S
C2660      H2664   1.083       .  S
C2661      F2674   1.384       .  S
C2661      F2675   1.382       .  S
C2661      F2676   1.382       .  S
C2663      F2671   1.385       .  S
C2663      F2672   1.383       .  S
C2663      F2673   1.383       .  S
C2677      C2678   1.404       .  A
C2677      C2682   1.414       .  A
C2677      H2687   1.083       .  S
C2678      C2683   1.492       .  S
C2678      C2679   1.415       .  A
C2679      C2680   1.406       .  A
C2679      C2684   1.520       .  S
C2680      C2681   1.408       .  A
C2680      H2685   1.082       .  S
C2681      C2682   1.423       .  A
C2682      C2686   1.518       .  S
C2683      C2688   1.419       .  A
C2683      C2692   1.400       .  A
C2684      F2700   1.382       .  S
C2684      F2701   1.382       .  S
C2684      F2702   1.385       .  S
C2686      F2697   1.382       .  S
C2686      F2698   1.385       .  S
C2686      F2699   1.384       .  S
C2688      C2689   1.414       .  A
C2688      C2693   1.518       .  S
C2689      C2690   1.404       .  A
C2689      H2694   1.083       .  S
C2690      C2691   1.421       .  A
C2691      C2692   1.407       .  A
C2691      C2695   1.520       .  S
C2692      H2696   1.083       .  S
C2693      F2706   1.384       .  S
C2693      F2707   1.382       .  S
C2693      F2708   1.382       .  S
C2695      F2703   1.385       .  S
C2695      F2704   1.383       .  S
C2695      F2705   1.382       .  S
C2709      C2710   1.404       .  A
C2709      C2714   1.411       .  A
C2709      H2719   1.083       .  S
C2710      C2715   1.493       .  S
C2710      C2711   1.417       .  A
C2711      C2712   1.408       .  A
C2711      C2716   1.519       .  S
C2712      C2713   1.405       .  A
C2712      H2717   1.083       .  S
C2713      C2714   1.419       .  A
C2714      C2718   1.518       .  S
C2715      C2720   1.416       .  A
C2715      C2724   1.403       .  A
C2716      F2732   1.382       .  S
C2716      F2733   1.382       .  S
C2716      F2734   1.385       .  S
C2718      F2729   1.382       .  S
C2718      F2730   1.385       .  S
C2718      F2731   1.383       .  S
C2720      C2721   1.408       .  A
C2720      C2725   1.519       .  S
C2721      C2722   1.407       .  A
C2721      H2726   1.083       .  S
C2722      C2723   1.423       .  A
C2723      C2724   1.412       .  A
C2723      C2727   1.519       .  S
C2724      H2728   1.083       .  S
C2725      F2738   1.384       .  S
C2725      F2739   1.382       .  S
C2725      F2740   1.383       .  S
C2727      F2735   1.385       .  S
C2727      F2736   1.383       .  S
C2727      F2737   1.383   1_556  S
C2741      C2742   1.401       .  A
C2741      C2746   1.410       .  A
C2741      H2751   1.083       .  S
C2742      C2747   1.489       .  S
C2742      C2743   1.415       .  A
C2743      C2744   1.408       .  A
C2743      C2748   1.520       .  S
C2744      C2745   1.408       .  A
C2744      H2749   1.083       .  S
C2745      C2746   1.423       .  A
C2746      C2750   1.519       .  S
C2747      C2752   1.415       .  A
C2747      C2756   1.400       .  A
C2748      F2764   1.382       .  S
C2748      F2765   1.383       .  S
C2748      F2766   1.385       .  S
C2750      F2761   1.383       .  S
C2750      F2762   1.385       .  S
C2750      F2763   1.384       .  S
C2752      C2753   1.409       .  A
C2752      C2757   1.521       .  S
C2753      C2754   1.409       .  A
C2753      H2758   1.082       .  S
C2754      C2755   1.426       .  A
C2755      C2756   1.411       .  A
C2755      C2759   1.519       .  S
C2756      H2760   1.083       .  S
C2757      F2770   1.384       .  S
C2757      F2771   1.382       .  S
C2757      F2772   1.383       .  S
C2759      F2767   1.384       .  S
C2759      F2768   1.383       .  S
C2759      F2769   1.385       .  S
