geometry optimzed in LAMMPS
_audit_creation_date              2020-12-01 
_audit_creation_method            'lammps2cif' 
_symmetry_space_group_name_H-M    'P1' 
_symmetry_Int_Tables_number       1 
_symmetry_cell_setting            triclinic 
loop_ 
_symmetry_equiv_pos_as_xyz 
  x,y,z 
_cell_length_a                    51.93012313 
_cell_length_b                    51.93191193715016 
_cell_length_c                    33.1777069121113 
_cell_angle_alpha                 89.76276830450436 
_cell_angle_beta                  89.71503017556508 
_cell_angle_gamma                 120.14102617700048 
loop_ 
_atom_site_label 
_atom_site_type_symbol 
_atom_site_fract_x 
_atom_site_fract_y 
_atom_site_fract_z 
_atom_site_charge 
O1          O  0.35825309  0.31659602  0.31516542    -0.72000
O2          O  0.43044745  0.39045227  0.30628495    -0.72300
O3          O  0.40874532  0.34492960  0.35787342    -0.72100
O4          O  0.38011208  0.36277354  0.26275247    -0.72100
O5          O  0.36345777  0.38641187  0.29833315    -0.72100
O6          O  0.38692688  0.36327416  0.39412478    -0.72100
O7          O  0.41180297  0.41089498  0.34477427    -0.72000
O8          O  0.33797374  0.33831063  0.34746403    -0.72200
V9          V  0.39388015  0.35401065  0.31109943     1.35200
V10         V  0.37530114  0.37421822  0.34552565     1.35200
C11         C  0.33572366  0.31491931  0.33249761     0.77200
C12         C  0.43366678  0.41299892  0.32503623     0.77300
C13         C  0.40315689  0.35151761  0.39219387     0.77100
C14         C  0.36797685  0.37867258  0.26413358     0.77100
O15         O  0.16919428  0.15179269  0.35515174    -0.72000
O16         O  0.09604288  0.07827244  0.35116841    -0.72300
O17         O  0.14486595  0.10546709  0.30487584    -0.72100
O18         O  0.12017144  0.12433733  0.40232703    -0.72100
O19         O  0.09828107  0.14387239  0.36884831    -0.72100
O20         O  0.12673168  0.12834799  0.27064758    -0.72100
O21         O  0.07683364  0.09963838  0.31570608    -0.72000
O22         O  0.14848976  0.17350616  0.32393410    -0.72200
V23         V  0.13222117  0.11546526  0.35279311     1.35200
V24         V  0.11308128  0.13604030  0.32038321     1.35200
C25         C  0.17122475  0.17520915  0.34023612     0.77200
C26         C  0.07403073  0.07649880  0.33248145     0.77300
C27         C  0.13982676  0.11328687  0.27111705     0.77100
C28         C  0.10415899  0.13631699  0.40236889     0.77100
O29         O  0.48981034  0.33558164  0.68809505    -0.72000
O30         O  0.49015556  0.40899394  0.68586948    -0.72300
O31         O  0.46469147  0.35941417  0.64168280    -0.72100
O32         O  0.51549330  0.38568970  0.73278214    -0.72100
O33         O  0.05409582  0.40673624  0.69300108    -0.72100
O34         O  0.00338380  0.37616233  0.60224655    -0.72100
O35         O  0.02777506  0.42721373  0.64427412    -0.72000
O36         O  0.03013798  0.35550334  0.65148949    -0.72200
V37         V  0.49080038  0.37269956  0.68642102     1.35200
V38         V  0.02805869  0.39091441  0.64846000     1.35200
C39         C  0.01011589  0.33314980  0.67040558     0.77200
C40         C  0.00898145  0.43056042  0.66448793     0.77300
C41         C  0.47537691  0.36347290  0.60637592     0.77100
C42         C  0.04340374  0.40191621  0.72835104     0.77100
O43         O  0.46277830  0.14506025  0.65325219    -0.72000
O44         O  0.46340423  0.07230606  0.64908410    -0.72300
O45         O  0.44501838  0.09781664  0.70292988    -0.72100
O46         O  0.48163706  0.11925247  0.59872847    -0.72100
O47         O  0.02506644  0.13888154  0.62681015    -0.72100
O48         O  0.98872195  0.12128290  0.73034725    -0.72100
O49         O  0.00643312  0.09345413  0.67857022    -0.72000
O50         O  0.00736406  0.16708373  0.67811446    -0.72200
V51         V  0.46405957  0.10914027  0.65142157     1.35200
V52         V  0.00602366  0.12983113  0.67792972     1.35200
C53         C  0.98498127  0.16850643  0.66633494     0.77200
C54         C  0.98479625  0.07037254  0.66373946     0.77300
C55         C  0.46075273  0.10567537  0.73442090     0.77100
C56         C  0.00968962  0.13163855  0.59509107     0.77100
O57         O  0.32087593  0.47153720  0.99663749    -0.72000
O58         O  0.39400857  0.47217722  0.98697325    -0.72300
O59         O  0.35107111  0.45311930  0.04268116    -0.72100
O60         O  0.36433790  0.49097219  0.94018749    -0.72100
O61         O  0.38989473  0.03414327  0.96855571    -0.72100
O62         O  0.37128332  0.99626556  0.07168132    -0.72100
O63         O  0.41652562  0.01437678  0.01852882    -0.72000
O64         O  0.34428916  0.01627561  0.02109867    -0.72200
V65         V  0.35794374  0.47282441  0.99208926     1.35200
V66         V  0.37997037  0.01444055  0.01950500     1.35200
C67         C  0.32019215  0.49397607  0.00983379     0.77200
C68         C  0.41757145  0.49302871  0.00196045     0.77300
C69         C  0.35918999  0.46821682  0.07467932     0.77100
C70         C  0.38036336  0.01898336  0.93673421     0.77100
O71         O  0.17664734  0.03586904  0.97797256    -0.72000
O72         O  0.10256693  0.03356457  0.97368051    -0.72300
O73         O  0.15028432  0.06081340  0.02028977    -0.72100
O74         O  0.12800376  0.00810238  0.93107639    -0.72100
O75         O  0.10682345  0.47033491  0.97221535    -0.72100
O76         O  0.13333111  0.52284708  0.06112583    -0.72100
O77         O  0.08372068  0.49672019  0.01653963    -0.72000
O78         O  0.15686166  0.49650715  0.01637683    -0.72200
V79         V  0.13912472  0.03382299  0.97646605     1.35200
V80         V  0.12066282  0.49734910  0.01579848     1.35200
C81         C  0.17938598  0.01644604  0.99754699     0.77200
C82         C  0.08074592  0.01521684  0.99502179     0.77300
C83         C  0.14498772  0.05063991  0.05594394     0.77100
C84         C  0.11246089  0.48020013  0.93646633     0.77100
C85         C  0.05273245  0.01584997  0.99518849    -0.05500
C86         C  0.05339254  0.04306165  0.99053251    -0.05400
C87         C  0.02705639  0.04411459  0.99164601    -0.23600
C88         C  0.99957602  0.01784173  0.99642964     0.18600
C89         C  0.49865561  0.49022217  0.99999163     0.15800
C90         C  0.02529575  0.48946696  0.00009454    -0.18600
C91         C  0.47109172  0.46383871  0.00313058    -0.20400
C92         C  0.44469525  0.46480978  0.00294113    -0.13000
C93         C  0.44547432  0.49219336  0.00063924     0.03700
C94         C  0.47299831  0.01868667  0.99749904    -0.25100
H95         H  0.07439925  0.06363089  0.98681761     0.08700
H96         H  0.02817227  0.06543619  0.98859352     0.12300
H97         H  0.02468940  0.46837401  0.00321704     0.12300
H98         H  0.46994412  0.44247265  0.00558664     0.12000
H99         H  0.42362950  0.44417010  0.00547485     0.12600
H100        H  0.47366257  0.03985137  0.99522879     0.14500
C101        C  0.29189912  0.49403266  0.01170459    -0.05500
C102        C  0.26571825  0.46832068  0.02416010    -0.05400
C103        C  0.23860846  0.46790367  0.02517191    -0.23600
C104        C  0.23713826  0.49294924  0.01261332     0.18600
C105        C  0.26336535  0.01879884  0.99942166     0.15800
C106        C  0.29069547  0.01936844  0.99978040    -0.18600
C107        C  0.26170893  0.04344601  0.98553207    -0.20400
C108        C  0.23435647  0.04252723  0.98470664    -0.13000
C109        C  0.20822070  0.01713789  0.99834733     0.03700
C110        C  0.20983582  0.49242708  0.01247599    -0.25100
H111        H  0.26632784  0.44861406  0.03345949     0.08700
H112        H  0.21873863  0.44786707  0.03522716     0.12300
H113        H  0.31084012  0.03912333  0.98962569     0.12300
H114        H  0.28152562  0.06335600  0.97503348     0.12000
H115        H  0.23370390  0.06184508  0.97367236     0.12600
H116        H  0.18979437  0.47261561  0.02272024     0.14500
C117        C  0.38880873  0.03348537  0.89648861    -0.05500
C118        C  0.37227964  0.01863966  0.86223940    -0.05400
C119        C  0.38177623  0.03108975  0.82374712    -0.23600
C120        C  0.40837556  0.05830778  0.81870865     0.18600
C121        C  0.42493584  0.07364919  0.85302333     0.15800
C122        C  0.41477936  0.06141876  0.89167647    -0.18600
C123        C  0.45201552  0.10035943  0.84800614    -0.20400
C124        C  0.46317131  0.11117515  0.80937296    -0.13000
C125        C  0.44716660  0.09589362  0.77500734     0.03700
C126        C  0.41933253  0.06980807  0.77993472    -0.25100
H127        H  0.35216528  0.99715998  0.86519896     0.08700
H128        H  0.36878434  0.01898589  0.79783109     0.12300
H129        H  0.42788134  0.07295062  0.91783183     0.12300
H130        H  0.46503121  0.11240565  0.87393960     0.12000
H131        H  0.48462239  0.13132185  0.80634569     0.12600
H132        H  0.40696068  0.05764704  0.75363928     0.14500
C133        C  0.09957572  0.45964781  0.90208916    -0.05500
C134        C  0.07416449  0.43146947  0.90810688    -0.05400
C135        C  0.05909328  0.41344290  0.87534674    -0.23600
C136        C  0.06935207  0.42312823  0.83596351     0.18600
C137        C  0.09592543  0.45061628  0.82971139     0.15800
C138        C  0.11077696  0.46878941  0.86278336    -0.18600
C139        C  0.10654227  0.45996570  0.79035513    -0.20400
C140        C  0.09020488  0.44304528  0.75744484    -0.13000
C141        C  0.06280842  0.41664635  0.76326366     0.03700
C142        C  0.05288023  0.40639454  0.80271769    -0.25100
H143        H  0.06510421  0.42390050  0.93810919     0.08700
H144        H  0.03894025  0.39232222  0.88076480     0.12300
H145        H  0.13051129  0.49035564  0.85785215     0.12300
H146        H  0.12700264  0.48081217  0.78496707     0.12000
H147        H  0.09830915  0.45142818  0.72733158     0.12600
H148        H  0.03189302  0.38594342  0.80752557     0.14500
C149        C  0.98467530  0.19678194  0.66816893    -0.05500
C150        C  0.45752293  0.19655692  0.67001185    -0.05400
C151        C  0.45709389  0.22320977  0.67244926    -0.23600
C152        C  0.48382174  0.25059221  0.67221217     0.18600
C153        C  0.01125541  0.25106065  0.66971690     0.15800
C154        C  0.01151304  0.22416982  0.66835023    -0.18600
C155        C  0.03795373  0.27843332  0.66803415    -0.20400
C156        C  0.03748601  0.30509671  0.66829745    -0.13000
C157        C  0.01039188  0.30487765  0.67128731     0.03700
C158        C  0.48359511  0.27751182  0.67371912    -0.25100
H159        H  0.43658323  0.17569479  0.67011443     0.08700
H160        H  0.43585845  0.22240993  0.67415038     0.12300
H161        H  0.03256578  0.22456523  0.66660625     0.12300
H162        H  0.05917020  0.27922122  0.66594564     0.12000
H163        H  0.05836922  0.32597202  0.66643119     0.12600
H164        H  0.46257693  0.27718617  0.67551292     0.14500
C165        C  0.00932064  0.45909761  0.66341538    -0.05500
C166        C  0.03632537  0.48588058  0.65781321    -0.05400
C167        C  0.03700072  0.01311097  0.65749871    -0.23600
C168        C  0.01055253  0.01392263  0.66180108     0.18600
C169        C  0.48315062  0.48699020  0.66646011     0.15800
C170        C  0.48278037  0.45978657  0.66797739    -0.18600
C171        C  0.45658282  0.48773545  0.66918905    -0.20400
C172        C  0.45715291  0.01490281  0.66745899    -0.13000
C173        C  0.98432546  0.04177565  0.66399552     0.03700
C174        C  0.01100360  0.04116984  0.66128244    -0.25100
H175        H  0.05702090  0.48576359  0.65437377     0.08700
H176        H  0.05816721  0.03350165  0.65366224     0.12300
H177        H  0.46183398  0.43913584  0.67187125     0.12300
H178        H  0.43537386  0.46732153  0.67249245     0.12000
H179        H  0.43637262  0.01497681  0.66969419     0.12600
H180        H  0.03201281  0.06185449  0.65813006     0.14500
C181        C  0.02444101  0.13615424  0.55520985    -0.05500
C182        C  0.00986382  0.13530933  0.51923575    -0.05400
C183        C  0.02348888  0.13744538  0.48176426    -0.23600
C184        C  0.05161620  0.13974797  0.47965991     0.18600
C185        C  0.06639594  0.14072442  0.51577338     0.15800
C186        C  0.05298941  0.13942934  0.55308731    -0.18600
C187        C  0.09394996  0.14195505  0.51411696    -0.20400
C188        C  0.10644071  0.14135691  0.47706963    -0.13000
C189        C  0.09199949  0.14018026  0.44086078     0.03700
C190        C  0.06478578  0.14000506  0.44228343    -0.25100
H191        H  0.98785188  0.13276135  0.52009843     0.08700
H192        H  0.01172144  0.13655434  0.45445810     0.12300
H193        H  0.06433690  0.13971009  0.58057199     0.12300
H194        H  0.10549422  0.14258992  0.54154439     0.12000
H195        H  0.12734856  0.14145231  0.47674259     0.12600
H196        H  0.05323878  0.13862022  0.41453415     0.14500
C197        C  0.15013539  0.07016017  0.09078440    -0.05500
C198        C  0.14521456  0.09433021  0.08743590    -0.05400
C199        C  0.14415674  0.10924806  0.12190950    -0.23600
C200        C  0.14835586  0.10041390  0.16019288     0.18600
C201        C  0.15535730  0.07743817  0.16337044     0.15800
C202        C  0.15603555  0.06238404  0.12874289    -0.18600
C203        C  0.16022110  0.06892513  0.20132819    -0.20400
C204        C  0.15657447  0.08183094  0.23603754    -0.13000
C205        C  0.14774932  0.10336296  0.23359982     0.03700
C206        C  0.14447440  0.11319859  0.19539165    -0.25100
H207        H  0.14043585  0.10054364  0.05841005     0.08700
H208        H  0.13903204  0.12696800  0.11874433     0.12300
H209        H  0.16000843  0.04384602  0.13147081     0.12300
H210        H  0.16594025  0.05160437  0.20427322     0.12000
H211        H  0.15948777  0.07396434  0.26499001     0.12600
H212        H  0.13796324  0.12997706  0.19307075     0.14500
C213        C  0.41711499  0.34760704  0.42867842    -0.05500
C214        C  0.44441803  0.34823530  0.42520569    -0.05400
C215        C  0.46047348  0.34947844  0.45950876    -0.23600
C216        C  0.44933740  0.34975506  0.49795380     0.18600
C217        C  0.42099276  0.34716612  0.50189513     0.15800
C218        C  0.40512927  0.34630971  0.46721312    -0.18600
C219        C  0.40959162  0.34671899  0.54044467    -0.20400
C220        C  0.42676764  0.35046666  0.57460397    -0.13000
C221        C  0.45574441  0.35499937  0.57080946     0.03700
C222        C  0.46656714  0.35377804  0.53237609    -0.25100
H223        H  0.45413166  0.34930979  0.39583925     0.08700
H224        H  0.48202106  0.35115935  0.45591103     0.12300
H225        H  0.38396978  0.34558051  0.47017477     0.12300
H226        H  0.38777330  0.34439311  0.54411942     0.12000
H227        H  0.41786068  0.35116704  0.60390230     0.12600
H228        H  0.48873987  0.35687963  0.52913091     0.14500
C229        C  0.04552790  0.04833723  0.33048821    -0.05500
C230        C  0.01884019  0.04888075  0.32751357    -0.05400
C231        C  0.49155496  0.02241334  0.32611091    -0.23600
C232        C  0.49059306  0.99498191  0.32671914     0.18600
C233        C  0.01742343  0.49421054  0.32855820     0.15800
C234        C  0.04472708  0.02092142  0.33113903    -0.18600
C235        C  0.01643446  0.46673779  0.32760318    -0.20400
C236        C  0.48910339  0.44028288  0.32522889    -0.13000
C237        C  0.46240215  0.44091622  0.32475381     0.03700
C238        C  0.46324880  0.46831350  0.32550296    -0.25100
H239        H  0.01906933  0.06985305  0.32697495     0.08700
H240        H  0.47123322  0.02340247  0.32441720     0.12300
H241        H  0.06532494  0.02043233  0.33288073     0.12300
H242        H  0.03675358  0.46571448  0.32871412     0.12000
H243        H  0.48875149  0.41925084  0.32489066     0.12600
H244        H  0.44263444  0.46883328  0.32476288     0.14500
C245        C  0.30752504  0.28633338  0.33525034    -0.05500
C246        C  0.30771128  0.25938644  0.33582581    -0.05400
C247        C  0.28105150  0.23222144  0.33869377    -0.23600
C248        C  0.25374198  0.23157168  0.34006387     0.18600
C249        C  0.25334979  0.25860625  0.33881153     0.15800
C250        C  0.28025476  0.28581485  0.33710377    -0.18600
C251        C  0.22604000  0.25794826  0.33864093    -0.20400
C252        C  0.19934529  0.23075706  0.33927310    -0.13000
C253        C  0.19950074  0.20380874  0.34105806     0.03700
C254        C  0.22681354  0.20436087  0.34189781    -0.25100
H255        H  0.32855040  0.25937041  0.33456961     0.08700
H256        H  0.28177847  0.21173343  0.33940583     0.12300
H257        H  0.27996823  0.30654601  0.33623529     0.12300
H258        H  0.22532241  0.27843403  0.33745244     0.12000
H259        H  0.17850590  0.23077990  0.33855363     0.12600
H260        H  0.22709000  0.18362474  0.34268201     0.14500
C261        C  0.36057880  0.38899040  0.22656297    -0.05500
C262        C  0.35664188  0.37345077  0.19045997    -0.05400
C263        C  0.35290597  0.38472459  0.15400800    -0.23600
C264        C  0.35379568  0.41215903  0.15281585     0.18600
C265        C  0.35715684  0.42775942  0.18902186     0.15800
C266        C  0.35994196  0.41578526  0.22579253    -0.18600
C267        C  0.35903779  0.45568121  0.18753263    -0.20400
C268        C  0.35886806  0.46856235  0.15042740    -0.13000
C269        C  0.35608278  0.45345485  0.11421851     0.03700
C270        C  0.35273408  0.42483942  0.11582080    -0.25100
H271        H  0.35694640  0.35274942  0.19033926     0.08700
H272        H  0.35034412  0.37246708  0.12654295     0.12300
H273        H  0.36326783  0.42811618  0.25342077     0.12300
H274        H  0.36163913  0.46799629  0.21495099     0.12000
H275        H  0.36141744  0.99057896  0.14999666     0.12600
H276        H  0.35086379  0.41305554  0.08810119     0.14500
O277        O  0.35825310  0.81659602  0.31516543    -0.72000
O278        O  0.43044747  0.89045226  0.30628496    -0.72300
O279        O  0.40874534  0.84492965  0.35787341    -0.72100
O280        O  0.38011212  0.86277362  0.26275248    -0.72100
O281        O  0.36345784  0.88641199  0.29833314    -0.72100
O282        O  0.38692682  0.86327412  0.39412479    -0.72100
O283        O  0.41180300  0.91089500  0.34477426    -0.72000
O284        O  0.33797374  0.83831064  0.34746398    -0.72200
V285        V  0.39388016  0.85401068  0.31109943     1.35200
V286        V  0.37530115  0.87421825  0.34552564     1.35200
C287        C  0.33572367  0.81491930  0.33249764     0.77200
C288        C  0.43366680  0.91299893  0.32503624     0.77300
C289        C  0.40315689  0.85151763  0.39219386     0.77100
C290        C  0.36797691  0.87867267  0.26413357     0.77100
O291        O  0.16919421  0.65179264  0.35515177    -0.72000
O292        O  0.09604290  0.57827238  0.35116832    -0.72300
O293        O  0.14486599  0.60546713  0.30487584    -0.72100
O294        O  0.12017137  0.62433722  0.40232701    -0.72100
O295        O  0.09828102  0.64387233  0.36884835    -0.72100
O296        O  0.12673159  0.62834790  0.27064755    -0.72100
O297        O  0.07683361  0.59963833  0.31570615    -0.72000
O298        O  0.14848970  0.67350610  0.32393409    -0.72200
V299        V  0.13222115  0.61546521  0.35279310     1.35200
V300        V  0.11308123  0.63604025  0.32038322     1.35200
C301        C  0.17122469  0.67520910  0.34023612     0.77200
C302        C  0.07403075  0.57649876  0.33248144     0.77300
C303        C  0.13982675  0.61328684  0.27111704     0.77100
C304        C  0.10415896  0.63631691  0.40236892     0.77100
O305        O  0.48981043  0.83558166  0.68809504    -0.72000
O306        O  0.49015555  0.90899391  0.68586948    -0.72300
O307        O  0.46469155  0.85941418  0.64168276    -0.72100
O308        O  0.51549338  0.88568966  0.73278214    -0.72100
O309        O  0.05409580  0.90673626  0.69300107    -0.72100
O310        O  0.00338386  0.87616241  0.60224647    -0.72100
O311        O  0.02777509  0.92721375  0.64427418    -0.72000
O312        O  0.03013796  0.85550331  0.65148936    -0.72200
V313        V  0.49080044  0.87269955  0.68642100     1.35200
V314        V  0.02805870  0.89091443  0.64845998     1.35200
C315        C  0.01011587  0.83314978  0.67040550     0.77200
C316        C  0.00898144  0.93056043  0.66448793     0.77300
C317        C  0.47537696  0.86347288  0.60637588     0.77100
C318        C  0.04340376  0.90191622  0.72835104     0.77100
O319        O  0.46277833  0.64506020  0.65325216    -0.72000
O320        O  0.46340431  0.57230604  0.64908411    -0.72300
O321        O  0.44501837  0.59781657  0.70292986    -0.72100
O322        O  0.48163705  0.61925238  0.59872849    -0.72100
O323        O  0.02506644  0.63888163  0.62681016    -0.72100
O324        O  0.98872190  0.62128283  0.73034722    -0.72100
O325        O  0.00643310  0.59345410  0.67857020    -0.72000
O326        O  0.00736400  0.66708369  0.67811449    -0.72200
V327        V  0.46405961  0.60914022  0.65142158     1.35200
V328        V  0.00602363  0.62983111  0.67792972     1.35200
C329        C  0.98498123  0.66850639  0.66633494     0.77200
C330        C  0.98479623  0.57037251  0.66373946     0.77300
C331        C  0.46075271  0.60567533  0.73442089     0.77100
C332        C  0.00968963  0.63163859  0.59509108     0.77100
O333        O  0.32087594  0.97153722  0.99663753    -0.72000
O334        O  0.39400861  0.97217726  0.98697324    -0.72300
O335        O  0.35107123  0.95311936  0.04268116    -0.72100
O336        O  0.36433787  0.99097222  0.94018747    -0.72100
O337        O  0.38989468  0.53414325  0.96855569    -0.72100
O338        O  0.37128319  0.49626552  0.07168132    -0.72100
O339        O  0.41652558  0.51437674  0.01852885    -0.72000
O340        O  0.34428915  0.51627561  0.02109866    -0.72200
V341        V  0.35794378  0.97282444  0.99208926     1.35200
V342        V  0.37997033  0.51444054  0.01950500     1.35200
C343        C  0.32019216  0.99397609  0.00983381     0.77200
C344        C  0.41757150  0.99302875  0.00196043     0.77300
C345        C  0.35919012  0.96821687  0.07467932     0.77100
C346        C  0.38036333  0.51898333  0.93673420     0.77100
O347        O  0.17664735  0.53586906  0.97797262    -0.72000
O348        O  0.10256686  0.53356447  0.97368053    -0.72300
O349        O  0.15028437  0.56081340  0.02028976    -0.72100
O350        O  0.12800373  0.50810235  0.93107641    -0.72100
O351        O  0.10682346  0.97033496  0.97221534    -0.72100
O352        O  0.13333101  0.02284708  0.06112585    -0.72100
O353        O  0.08372064  0.99672018  0.01653943    -0.72000
O354        O  0.15686165  0.99650719  0.01637693    -0.72200
V355        V  0.13912470  0.53382296  0.97646606     1.35200
V356        V  0.12066279  0.99734912  0.01579846     1.35200
C357        C  0.17938601  0.51644605  0.99754698     0.77200
C358        C  0.08074590  0.51521679  0.99502193     0.77300
C359        C  0.14498780  0.55063991  0.05594393     0.77100
C360        C  0.11246092  0.98020016  0.93646632     0.77100
C361        C  0.05273245  0.51584994  0.99518867    -0.05500
C362        C  0.05339256  0.54306162  0.99053257    -0.05400
C363        C  0.02705641  0.54411457  0.99164601    -0.23600
C364        C  0.99957602  0.51784173  0.99642963     0.18600
C365        C  0.49865562  0.99022214  0.99999168     0.15800
C366        C  0.02529576  0.98946699  0.00009449    -0.18600
C367        C  0.47109171  0.96383868  0.00313076    -0.20400
C368        C  0.44469526  0.96480979  0.00294119    -0.13000
C369        C  0.44547437  0.99219338  0.00063924     0.03700
C370        C  0.47299826  0.51868665  0.99749903    -0.25100
H371        H  0.07439928  0.56363080  0.98681761     0.08700
H372        H  0.02817234  0.56543620  0.98859346     0.12300
H373        H  0.02468946  0.96837402  0.00321708     0.12300
H374        H  0.46994407  0.94247264  0.00558690     0.12000
H375        H  0.42362950  0.94417014  0.00547483     0.12600
H376        H  0.47366251  0.53985135  0.99522878     0.14500
C377        C  0.29189910  0.99403269  0.01170464    -0.05500
C378        C  0.26571821  0.96832065  0.02415999    -0.05400
C379        C  0.23860838  0.96790363  0.02517175    -0.23600
C380        C  0.23713824  0.99294927  0.01261327     0.18600
C381        C  0.26336537  0.51879879  0.99942158     0.15800
C382        C  0.29069547  0.51936837  0.99978020    -0.18600
C383        C  0.26170896  0.54344596  0.98553204    -0.20400
C384        C  0.23435651  0.54252720  0.98470662    -0.13000
C385        C  0.20822072  0.51713787  0.99834732     0.03700
C386        C  0.20983577  0.99242708  0.01247599    -0.25100
H387        H  0.26632776  0.94861406  0.03345935     0.08700
H388        H  0.21873859  0.94786708  0.03522683     0.12300
H389        H  0.31084013  0.53912322  0.98962532     0.12300
H390        H  0.28152563  0.56335591  0.97503346     0.12000
H391        H  0.23370399  0.56184506  0.97367235     0.12600
H392        H  0.18979438  0.97261566  0.02272014     0.14500
C393        C  0.38880869  0.53348533  0.89648860    -0.05500
C394        C  0.37227960  0.51863962  0.86223938    -0.05400
C395        C  0.38177621  0.53108977  0.82374710    -0.23600
C396        C  0.40837553  0.55830780  0.81870866     0.18600
C397        C  0.42493585  0.57364918  0.85302335     0.15800
C398        C  0.41477933  0.56141871  0.89167646    -0.18600
C399        C  0.45201553  0.60035944  0.84800616    -0.20400
C400        C  0.46317129  0.61117521  0.80937297    -0.13000
C401        C  0.44716658  0.59589365  0.77500734     0.03700
C402        C  0.41933251  0.56980812  0.77993476    -0.25100
H403        H  0.35216528  0.49715998  0.86519889     0.08700
H404        H  0.36878434  0.51898594  0.79783110     0.12300
H405        H  0.42788131  0.57295058  0.91783183     0.12300
H406        H  0.46503126  0.61240569  0.87393961     0.12000
H407        H  0.48462233  0.63132192  0.80634566     0.12600
H408        H  0.40696065  0.55764706  0.75363929     0.14500
C409        C  0.09957576  0.95964781  0.90208915    -0.05500
C410        C  0.07416448  0.93146948  0.90810683    -0.05400
C411        C  0.05909335  0.91344290  0.87534668    -0.23600
C412        C  0.06935212  0.92312823  0.83596347     0.18600
C413        C  0.09592547  0.95061631  0.82971137     0.15800
C414        C  0.11077697  0.96878941  0.86278335    -0.18600
C415        C  0.10654235  0.95996574  0.79035513    -0.20400
C416        C  0.09020493  0.94304535  0.75744481    -0.13000
C417        C  0.06280848  0.91664635  0.76326362     0.03700
C418        C  0.05288033  0.90639456  0.80271764    -0.25100
H419        H  0.06510412  0.92390055  0.93810910     0.08700
H420        H  0.03894031  0.89232214  0.88076474     0.12300
H421        H  0.13051132  0.99035571  0.85785212     0.12300
H422        H  0.12700270  0.98081213  0.78496714     0.12000
H423        H  0.09830919  0.95142832  0.72733160     0.12600
H424        H  0.03189304  0.88594334  0.80752556     0.14500
C425        C  0.98467529  0.69678191  0.66816892    -0.05500
C426        C  0.45752298  0.69655690  0.67001184    -0.05400
C427        C  0.45709395  0.72320976  0.67244927    -0.23600
C428        C  0.48382181  0.75059219  0.67221218     0.18600
C429        C  0.01125543  0.75106062  0.66971685     0.15800
C430        C  0.01151308  0.72416979  0.66835022    -0.18600
C431        C  0.03795373  0.77843330  0.66803395    -0.20400
C432        C  0.03748599  0.80509668  0.66829735    -0.13000
C433        C  0.01039185  0.80487760  0.67128727     0.03700
C434        C  0.48359518  0.77751179  0.67371912    -0.25100
H435        H  0.43658324  0.67569471  0.67011442     0.08700
H436        H  0.43585853  0.72240995  0.67415040     0.12300
H437        H  0.03256575  0.72456520  0.66660623     0.12300
H438        H  0.05917023  0.77922123  0.66594525     0.12000
H439        H  0.05836918  0.82597201  0.66643105     0.12600
H440        H  0.46257699  0.77718613  0.67551291     0.14500
C441        C  0.00932063  0.95909760  0.66341536    -0.05500
C442        C  0.03632533  0.98588055  0.65781320    -0.05400
C443        C  0.03700071  0.51311098  0.65749871    -0.23600
C444        C  0.01055251  0.51392262  0.66180107     0.18600
C445        C  0.48315063  0.98699021  0.66646011     0.15800
C446        C  0.48278037  0.95978657  0.66797738    -0.18600
C447        C  0.45658281  0.98773545  0.66918904    -0.20400
C448        C  0.45715293  0.51490281  0.66745899    -0.13000
C449        C  0.98432545  0.54177563  0.66399552     0.03700
C450        C  0.01100358  0.54116982  0.66128243    -0.25100
H451        H  0.05702091  0.98576354  0.65437376     0.08700
H452        H  0.05816718  0.53350167  0.65366225     0.12300
H453        H  0.46183398  0.93913589  0.67187122     0.12300
H454        H  0.43537387  0.96732155  0.67249244     0.12000
H455        H  0.43637267  0.51497686  0.66969418     0.12600
H456        H  0.03201280  0.56185446  0.65813005     0.14500
C457        C  0.02444102  0.63615425  0.55520986    -0.05500
C458        C  0.00986383  0.63530938  0.51923576    -0.05400
C459        C  0.02348890  0.63744539  0.48176427    -0.23600
C460        C  0.05161628  0.63974808  0.47965993     0.18600
C461        C  0.06639600  0.64072449  0.51577341     0.15800
C462        C  0.05298939  0.63942929  0.55308733    -0.18600
C463        C  0.09394997  0.64195502  0.51411700    -0.20400
C464        C  0.10644075  0.64135683  0.47706969    -0.13000
C465        C  0.09199952  0.64018023  0.44086084     0.03700
C466        C  0.06478589  0.64000514  0.44228352    -0.25100
H467        H  0.98785196  0.63276146  0.52009845     0.08700
H468        H  0.01172141  0.63655423  0.45445809     0.12300
H469        H  0.06433681  0.63970993  0.58057200     0.12300
H470        H  0.10549419  0.64258980  0.54154445     0.12000
H471        H  0.12734850  0.64145215  0.47674265     0.12600
H472        H  0.05323885  0.63862030  0.41453413     0.14500
C473        C  0.15013545  0.57016016  0.09078441    -0.05500
C474        C  0.14521454  0.59433015  0.08743591    -0.05400
C475        C  0.14415681  0.60924806  0.12190953    -0.23600
C476        C  0.14835593  0.60041386  0.16019289     0.18600
C477        C  0.15535737  0.57743813  0.16337044     0.15800
C478        C  0.15603565  0.56238403  0.12874286    -0.18600
C479        C  0.16022110  0.56892505  0.20132819    -0.20400
C480        C  0.15657452  0.58183089  0.23603756    -0.13000
C481        C  0.14774934  0.60336291  0.23359983     0.03700
C482        C  0.14447440  0.61319851  0.19539166    -0.25100
H483        H  0.14043576  0.60054352  0.05841016     0.08700
H484        H  0.13903214  0.62696797  0.11874437     0.12300
H485        H  0.16000854  0.54384601  0.13147077     0.12300
H486        H  0.16594021  0.55160420  0.20427324     0.12000
H487        H  0.15948783  0.57396430  0.26499000     0.12600
H488        H  0.13796315  0.62997688  0.19307076     0.14500
C489        C  0.41711502  0.84760707  0.42867840    -0.05500
C490        C  0.44441808  0.84823532  0.42520568    -0.05400
C491        C  0.46047352  0.84947851  0.45950878    -0.23600
C492        C  0.44933740  0.84975508  0.49795379     0.18600
C493        C  0.42099276  0.84716614  0.50189512     0.15800
C494        C  0.40512928  0.84630971  0.46721308    -0.18600
C495        C  0.40959159  0.84671895  0.54044468    -0.20400
C496        C  0.42676762  0.85046658  0.57460397    -0.13000
C497        C  0.45574441  0.85499930  0.57080943     0.03700
C498        C  0.46656709  0.85377798  0.53237607    -0.25100
H499        H  0.45413172  0.84930978  0.39583930     0.08700
H500        H  0.48202116  0.85115951  0.45591111     0.12300
H501        H  0.38396975  0.84558041  0.47017470     0.12300
H502        H  0.38777325  0.84439303  0.54411945     0.12000
H503        H  0.41786068  0.85116695  0.60390230     0.12600
H504        H  0.48873991  0.85687961  0.52913085     0.14500
C505        C  0.04552793  0.54833720  0.33048814    -0.05500
C506        C  0.01884022  0.54888071  0.32751340    -0.05400
C507        C  0.49155492  0.52241331  0.32611091    -0.23600
C508        C  0.49059302  0.49498188  0.32671914     0.18600
C509        C  0.01742339  0.99421056  0.32855821     0.15800
C510        C  0.04472715  0.52092139  0.33113903    -0.18600
C511        C  0.01643442  0.96673782  0.32760318    -0.20400
C512        C  0.48910341  0.94028289  0.32522890    -0.13000
C513        C  0.46240217  0.94091623  0.32475384     0.03700
C514        C  0.46324882  0.96831352  0.32550297    -0.25100
H515        H  0.01906935  0.56985299  0.32697468     0.08700
H516        H  0.47123317  0.52340242  0.32441720     0.12300
H517        H  0.06532493  0.52043232  0.33288076     0.12300
H518        H  0.03675356  0.96571452  0.32871411     0.12000
H519        H  0.48875152  0.91925086  0.32489067     0.12600
H520        H  0.44263452  0.96883330  0.32476288     0.14500
C521        C  0.30752505  0.78633335  0.33525038    -0.05500
C522        C  0.30771126  0.75938638  0.33582581    -0.05400
C523        C  0.28105147  0.73222139  0.33869376    -0.23600
C524        C  0.25374195  0.73157162  0.34006387     0.18600
C525        C  0.25334978  0.75860621  0.33881153     0.15800
C526        C  0.28025477  0.78581478  0.33710378    -0.18600
C527        C  0.22604000  0.75794820  0.33864093    -0.20400
C528        C  0.19934528  0.73075702  0.33927310    -0.13000
C529        C  0.19950070  0.70380868  0.34105805     0.03700
C530        C  0.22681350  0.70436083  0.34189781    -0.25100
H531        H  0.32855038  0.75937033  0.33456961     0.08700
H532        H  0.28177843  0.71173334  0.33940582     0.12300
H533        H  0.27996826  0.80654603  0.33623529     0.12300
H534        H  0.22532242  0.77843403  0.33745243     0.12000
H535        H  0.17850591  0.73077986  0.33855363     0.12600
H536        H  0.22708995  0.68362465  0.34268201     0.14500
C537        C  0.36057877  0.88899041  0.22656296    -0.05500
C538        C  0.35664181  0.87345071  0.19045998    -0.05400
C539        C  0.35290587  0.88472455  0.15400801    -0.23600
C540        C  0.35379567  0.91215904  0.15281585     0.18600
C541        C  0.35715686  0.92775944  0.18902186     0.15800
C542        C  0.35994194  0.91578525  0.22579251    -0.18600
C543        C  0.35903792  0.95568129  0.18753262    -0.20400
C544        C  0.35886806  0.96856238  0.15042741    -0.13000
C545        C  0.35608286  0.95345491  0.11421852     0.03700
C546        C  0.35273419  0.92483949  0.11582082    -0.25100
H547        H  0.35694635  0.85274942  0.19033927     0.08700
H548        H  0.35034399  0.87246703  0.12654298     0.12300
H549        H  0.36326787  0.92811622  0.25342077     0.12300
H550        H  0.36163933  0.96799640  0.21495100     0.12000
H551        H  0.36141751  0.49057890  0.14999666     0.12600
H552        H  0.35086399  0.91305566  0.08810116     0.14500
O553        O  0.85825309  0.31659601  0.31516542    -0.72000
O554        O  0.93044743  0.39045227  0.30628495    -0.72300
O555        O  0.90874531  0.34492960  0.35787341    -0.72100
O556        O  0.88011209  0.36277355  0.26275246    -0.72100
O557        O  0.86345777  0.38641187  0.29833315    -0.72100
O558        O  0.88692687  0.36327415  0.39412479    -0.72100
O559        O  0.91180296  0.41089499  0.34477426    -0.72000
O560        O  0.83797374  0.33831062  0.34746403    -0.72200
V561        V  0.89388014  0.35401065  0.31109943     1.35200
V562        V  0.87530113  0.37421822  0.34552566     1.35200
C563        C  0.83572366  0.31491930  0.33249762     0.77200
C564        C  0.93366677  0.41299893  0.32503624     0.77300
C565        C  0.90315690  0.35151762  0.39219387     0.77100
C566        C  0.86797686  0.37867260  0.26413357     0.77100
O567        O  0.66919425  0.15179270  0.35515175    -0.72000
O568        O  0.59604290  0.07827244  0.35116836    -0.72300
O569        O  0.64486594  0.10546711  0.30487583    -0.72100
O570        O  0.62017143  0.12433731  0.40232701    -0.72100
O571        O  0.59828106  0.14387239  0.36884833    -0.72100
O572        O  0.62673164  0.12834798  0.27064758    -0.72100
O573        O  0.57683363  0.09963837  0.31570613    -0.72000
O574        O  0.64848973  0.17350617  0.32393409    -0.72200
V575        V  0.63222117  0.11546526  0.35279309     1.35200
V576        V  0.61308126  0.13604030  0.32038322     1.35200
C577        C  0.67122473  0.17520916  0.34023611     0.77200
C578        C  0.57403075  0.07649880  0.33248146     0.77300
C579        C  0.63982673  0.11328687  0.27111704     0.77100
C580        C  0.60415901  0.13631699  0.40236890     0.77100
O581        O  0.98981037  0.33558164  0.68809503    -0.72000
O582        O  0.99015555  0.40899391  0.68586952    -0.72300
O583        O  0.96469150  0.35941418  0.64168281    -0.72100
O584        O  0.01549334  0.38568969  0.73278213    -0.72100
O585        O  0.55409579  0.40673622  0.69300109    -0.72100
O586        O  0.50338379  0.37616235  0.60224655    -0.72100
O587        O  0.52777512  0.42721377  0.64427416    -0.72000
O588        O  0.53013794  0.35550334  0.65148948    -0.72200
V589        V  0.99080040  0.37269954  0.68642103     1.35200
V590        V  0.52805867  0.39091441  0.64846001     1.35200
C591        C  0.51011586  0.33314980  0.67040559     0.77200
C592        C  0.50898149  0.43056046  0.66448794     0.77300
C593        C  0.97537693  0.36347289  0.60637593     0.77100
C594        C  0.54340371  0.40191621  0.72835105     0.77100
O595        O  0.96277834  0.14506025  0.65325218    -0.72000
O596        O  0.96340426  0.07230606  0.64908409    -0.72300
O597        O  0.94501836  0.09781664  0.70292990    -0.72100
O598        O  0.98163705  0.11925243  0.59872848    -0.72100
O599        O  0.52506645  0.13888159  0.62681016    -0.72100
O600        O  0.48872196  0.12128290  0.73034724    -0.72100
O601        O  0.50643309  0.09345413  0.67857019    -0.72000
O602        O  0.50736401  0.16708372  0.67811444    -0.72200
V603        V  0.96405959  0.10914026  0.65142158     1.35200
V604        V  0.50602365  0.12983114  0.67792971     1.35200
C605        C  0.48498123  0.16850643  0.66633494     0.77200
C606        C  0.48479622  0.07037254  0.66373945     0.77300
C607        C  0.96075271  0.10567537  0.73442092     0.77100
C608        C  0.50968965  0.13163861  0.59509108     0.77100
O609        O  0.82087592  0.47153719  0.99663752    -0.72000
O610        O  0.89400860  0.47217723  0.98697322    -0.72300
O611        O  0.85107124  0.45311930  0.04268114    -0.72100
O612        O  0.86433787  0.49097221  0.94018748    -0.72100
O613        O  0.88989470  0.03414327  0.96855571    -0.72100
O614        O  0.87128329  0.99626555  0.07168132    -0.72100
O615        O  0.91652561  0.01437677  0.01852882    -0.72000
O616        O  0.84428913  0.01627561  0.02109867    -0.72200
V617        V  0.85794377  0.47282441  0.99208926     1.35200
V618        V  0.87997035  0.01444055  0.01950500     1.35200
C619        C  0.82019214  0.49397606  0.00983380     0.77200
C620        C  0.91757148  0.49302871  0.00196046     0.77300
C621        C  0.85919006  0.46821682  0.07467932     0.77100
C622        C  0.88036333  0.01898336  0.93673421     0.77100
O623        O  0.67664735  0.03586903  0.97797254    -0.72000
O624        O  0.60256694  0.03356457  0.97368053    -0.72300
O625        O  0.65028439  0.06081340  0.02028977    -0.72100
O626        O  0.62800373  0.00810238  0.93107639    -0.72100
O627        O  0.60682342  0.47033491  0.97221536    -0.72100
O628        O  0.63333108  0.52284709  0.06112583    -0.72100
O629        O  0.58372065  0.49672020  0.01653962    -0.72000
O630        O  0.65686163  0.49650715  0.01637683    -0.72200
V631        V  0.63912473  0.03382299  0.97646605     1.35200
V632        V  0.62066279  0.49734910  0.01579848     1.35200
C633        C  0.67938601  0.01644605  0.99754697     0.77200
C634        C  0.58074594  0.01521683  0.99502180     0.77300
C635        C  0.64498781  0.05063991  0.05594394     0.77100
C636        C  0.61246089  0.48020013  0.93646633     0.77100
C637        C  0.55273247  0.01584994  0.99518852    -0.05500
C638        C  0.55339259  0.04306163  0.99053252    -0.05400
C639        C  0.52705643  0.04411456  0.99164601    -0.23600
C640        C  0.49957605  0.01784171  0.99642963     0.18600
C641        C  0.99865560  0.49022216  0.99999162     0.15800
C642        C  0.52529577  0.48946700  0.00009456    -0.18600
C643        C  0.97109172  0.46383869  0.00313059    -0.20400
C644        C  0.94469526  0.46480976  0.00294114    -0.13000
C645        C  0.94547435  0.49219335  0.00063924     0.03700
C646        C  0.97299828  0.01868668  0.99749905    -0.25100
H647        H  0.57439929  0.06363082  0.98681764     0.08700
H648        H  0.52817235  0.06543618  0.98859352     0.12300
H649        H  0.52468945  0.46837402  0.00321707     0.12300
H650        H  0.96994411  0.44247267  0.00558663     0.12000
H651        H  0.92362953  0.44417008  0.00547486     0.12600
H652        H  0.97366255  0.03985139  0.99522878     0.14500
C653        C  0.79189910  0.49403266  0.01170459    -0.05500
C654        C  0.76571824  0.46832066  0.02416007    -0.05400
C655        C  0.73860843  0.46790367  0.02517191    -0.23600
C656        C  0.73713826  0.49294926  0.01261332     0.18600
C657        C  0.76336535  0.01879883  0.99942166     0.15800
C658        C  0.79069546  0.01936844  0.99978040    -0.18600
C659        C  0.76170898  0.04344602  0.98553207    -0.20400
C660        C  0.73435652  0.04252725  0.98470663    -0.13000
C661        C  0.70822073  0.01713791  0.99834731     0.03700
C662        C  0.70983580  0.49242708  0.01247599    -0.25100
H663        H  0.76632780  0.44861404  0.03345941     0.08700
H664        H  0.71873862  0.44786711  0.03522711     0.12300
H665        H  0.81084011  0.03912331  0.98962569     0.12300
H666        H  0.78152564  0.06335597  0.97503350     0.12000
H667        H  0.73370399  0.06184511  0.97367235     0.12600
H668        H  0.68979435  0.47261562  0.02272023     0.14500
C669        C  0.88880871  0.03348537  0.89648862    -0.05500
C670        C  0.87227962  0.01863966  0.86223940    -0.05400
C671        C  0.88177621  0.03108976  0.82374712    -0.23600
C672        C  0.90837556  0.05830777  0.81870867     0.18600
C673        C  0.92493586  0.07364916  0.85302335     0.15800
C674        C  0.91477936  0.06141875  0.89167647    -0.18600
C675        C  0.95201552  0.10035943  0.84800618    -0.20400
C676        C  0.96317129  0.11117517  0.80937299    -0.13000
C677        C  0.94716659  0.09589364  0.77500736     0.03700
C678        C  0.91933252  0.06980807  0.77993474    -0.25100
H679        H  0.85216526  0.99715999  0.86519896     0.08700
H680        H  0.86878431  0.01898591  0.79783110     0.12300
H681        H  0.92788131  0.07295064  0.91783184     0.12300
H682        H  0.96503120  0.11240568  0.87393964     0.12000
H683        H  0.98462237  0.13132188  0.80634574     0.12600
H684        H  0.90696067  0.05764703  0.75363935     0.14500
C685        C  0.59957576  0.45964779  0.90208917    -0.05500
C686        C  0.57416449  0.43146948  0.90810688    -0.05400
C687        C  0.55909327  0.41344292  0.87534674    -0.23600
C688        C  0.56935207  0.42312823  0.83596351     0.18600
C689        C  0.59592542  0.45061630  0.82971139     0.15800
C690        C  0.61077696  0.46878941  0.86278336    -0.18600
C691        C  0.60654225  0.45996569  0.79035513    -0.20400
C692        C  0.59020487  0.44304529  0.75744483    -0.13000
C693        C  0.56280841  0.41664634  0.76326366     0.03700
C694        C  0.55288028  0.40639451  0.80271769    -0.25100
H695        H  0.56510420  0.42390053  0.93810919     0.08700
H696        H  0.53894022  0.39232224  0.88076479     0.12300
H697        H  0.63051128  0.49035567  0.85785213     0.12300
H698        H  0.62700267  0.48081217  0.78496706     0.12000
H699        H  0.59830913  0.45142819  0.72733157     0.12600
H700        H  0.53189306  0.38594332  0.80752557     0.14500
C701        C  0.48467527  0.19678194  0.66816893    -0.05500
C702        C  0.95752296  0.19655691  0.67001185    -0.05400
C703        C  0.95709393  0.22320975  0.67244927    -0.23600
C704        C  0.98382176  0.25059221  0.67221217     0.18600
C705        C  0.51125540  0.25106065  0.66971690     0.15800
C706        C  0.51151304  0.22416981  0.66835023    -0.18600
C707        C  0.53795372  0.27843332  0.66803415    -0.20400
C708        C  0.53748599  0.30509671  0.66829744    -0.13000
C709        C  0.51039185  0.30487764  0.67128731     0.03700
C710        C  0.98359511  0.27751182  0.67371912    -0.25100
H711        H  0.93658324  0.17569473  0.67011444     0.08700
H712        H  0.93585844  0.22240990  0.67415040     0.12300
H713        H  0.53256572  0.22456521  0.66660626     0.12300
H714        H  0.55917022  0.27922124  0.66594564     0.12000
H715        H  0.55836919  0.32597203  0.66643119     0.12600
H716        H  0.96257700  0.27718617  0.67551291     0.14500
C717        C  0.50932066  0.45909763  0.66341536    -0.05500
C718        C  0.53632538  0.48588060  0.65781320    -0.05400
C719        C  0.53700073  0.01311097  0.65749871    -0.23600
C720        C  0.51055254  0.01392264  0.66180108     0.18600
C721        C  0.98315061  0.48699018  0.66646011     0.15800
C722        C  0.98278036  0.45978656  0.66797739    -0.18600
C723        C  0.95658280  0.48773542  0.66918905    -0.20400
C724        C  0.95715291  0.01490281  0.66745899    -0.13000
C725        C  0.48432546  0.04177566  0.66399550     0.03700
C726        C  0.51100360  0.04116985  0.66128243    -0.25100
H727        H  0.55702091  0.48576362  0.65437376     0.08700
H728        H  0.55816723  0.03350166  0.65366223     0.12300
H729        H  0.96183397  0.43913584  0.67187125     0.12300
H730        H  0.93537384  0.46732150  0.67249245     0.12000
H731        H  0.93637263  0.01497684  0.66969418     0.12600
H732        H  0.53201281  0.06185450  0.65813005     0.14500
C733        C  0.52444104  0.13615428  0.55520986    -0.05500
C734        C  0.50986384  0.13530934  0.51923575    -0.05400
C735        C  0.52348889  0.13744538  0.48176424    -0.23600
C736        C  0.55161622  0.13974797  0.47965990     0.18600
C737        C  0.56639595  0.14072442  0.51577337     0.15800
C738        C  0.55298942  0.13942934  0.55308731    -0.18600
C739        C  0.59394997  0.14195505  0.51411698    -0.20400
C740        C  0.60644074  0.14135691  0.47706966    -0.13000
C741        C  0.59199953  0.14018027  0.44086081     0.03700
C742        C  0.56478581  0.14000506  0.44228344    -0.25100
H743        H  0.48785191  0.13276137  0.52009846     0.08700
H744        H  0.51172144  0.13655434  0.45445809     0.12300
H745        H  0.56433688  0.13971008  0.58057198     0.12300
H746        H  0.60549420  0.14258992  0.54154442     0.12000
H747        H  0.62734860  0.14145230  0.47674263     0.12600
H748        H  0.55323883  0.13862021  0.41453414     0.14500
C749        C  0.65013549  0.07016019  0.09078440    -0.05500
C750        C  0.64521457  0.09433018  0.08743592    -0.05400
C751        C  0.64415676  0.10924803  0.12190951    -0.23600
C752        C  0.64835595  0.10041392  0.16019288     0.18600
C753        C  0.65535742  0.07743821  0.16337044     0.15800
C754        C  0.65603570  0.06238409  0.12874287    -0.18600
C755        C  0.66022112  0.06892513  0.20132822    -0.20400
C756        C  0.65657444  0.08183093  0.23603755    -0.13000
C757        C  0.64774929  0.10336295  0.23359980     0.03700
C758        C  0.64447441  0.11319858  0.19539163    -0.25100
H759        H  0.64043578  0.10054355  0.05841009     0.08700
H760        H  0.63903197  0.12696791  0.11874435     0.12300
H761        H  0.66000859  0.04384607  0.13147080     0.12300
H762        H  0.66594028  0.05160433  0.20427331     0.12000
H763        H  0.65948773  0.07396433  0.26499004     0.12600
H764        H  0.63796320  0.12997699  0.19307070     0.14500
C765        C  0.91711502  0.34760705  0.42867840    -0.05500
C766        C  0.94441808  0.34823530  0.42520568    -0.05400
C767        C  0.96047350  0.34947844  0.45950879    -0.23600
C768        C  0.94933740  0.34975507  0.49795380     0.18600
C769        C  0.92099276  0.34716612  0.50189512     0.15800
C770        C  0.90512929  0.34630971  0.46721308    -0.18600
C771        C  0.90959162  0.34671900  0.54044468    -0.20400
C772        C  0.92676764  0.35046666  0.57460398    -0.13000
C773        C  0.95574441  0.35499936  0.57080946     0.03700
C774        C  0.96656713  0.35377804  0.53237609    -0.25100
H775        H  0.95413173  0.34930978  0.39583930     0.08700
H776        H  0.98202110  0.35115936  0.45591112     0.12300
H777        H  0.88396981  0.34558051  0.47017470     0.12300
H778        H  0.88777330  0.34439312  0.54411944     0.12000
H779        H  0.91786071  0.35116705  0.60390231     0.12600
H780        H  0.98873988  0.35687963  0.52913089     0.14500
C781        C  0.54552792  0.04833723  0.33048822    -0.05500
C782        C  0.51884021  0.04888074  0.32751357    -0.05400
C783        C  0.99155493  0.02241336  0.32611091    -0.23600
C784        C  0.99059301  0.99498191  0.32671914     0.18600
C785        C  0.51742340  0.49421054  0.32855821     0.15800
C786        C  0.54472715  0.02092143  0.33113903    -0.18600
C787        C  0.51643443  0.46673780  0.32760318    -0.20400
C788        C  0.98910341  0.44028287  0.32522890    -0.13000
C789        C  0.96240216  0.44091621  0.32475382     0.03700
C790        C  0.96324881  0.46831350  0.32550297    -0.25100
H791        H  0.51906932  0.06985301  0.32697496     0.08700
H792        H  0.97123320  0.02340249  0.32441719     0.12300
H793        H  0.56532495  0.02043236  0.33288072     0.12300
H794        H  0.53675356  0.46571448  0.32871412     0.12000
H795        H  0.98875153  0.41925084  0.32489066     0.12600
H796        H  0.94263452  0.46883329  0.32476288     0.14500
C797        C  0.80752505  0.28633338  0.33525034    -0.05500
C798        C  0.80771129  0.25938644  0.33582581    -0.05400
C799        C  0.78105151  0.23222144  0.33869377    -0.23600
C800        C  0.75374198  0.23157167  0.34006387     0.18600
C801        C  0.75334980  0.25860625  0.33881153     0.15800
C802        C  0.78025477  0.28581484  0.33710377    -0.18600
C803        C  0.72604003  0.25794825  0.33864093    -0.20400
C804        C  0.69934531  0.23075708  0.33927310    -0.13000
C805        C  0.69950074  0.20380874  0.34105806     0.03700
C806        C  0.72681353  0.20436087  0.34189781    -0.25100
H807        H  0.82855041  0.25937042  0.33456961     0.08700
H808        H  0.78177850  0.21173342  0.33940582     0.12300
H809        H  0.77996823  0.30654601  0.33623529     0.12300
H810        H  0.72532246  0.27843407  0.33745244     0.12000
H811        H  0.67850595  0.23077994  0.33855363     0.12600
H812        H  0.72708999  0.18362473  0.34268201     0.14500
C813        C  0.86057880  0.38899040  0.22656297    -0.05500
C814        C  0.85664188  0.37345076  0.19045999    -0.05400
C815        C  0.85290605  0.38472460  0.15400799    -0.23600
C816        C  0.85379571  0.41215903  0.15281585     0.18600
C817        C  0.85715684  0.42775940  0.18902186     0.15800
C818        C  0.85994196  0.41578525  0.22579254    -0.18600
C819        C  0.85903787  0.45568122  0.18753262    -0.20400
C820        C  0.85886805  0.46856233  0.15042740    -0.13000
C821        C  0.85608282  0.45345484  0.11421851     0.03700
C822        C  0.85273419  0.42483944  0.11582080    -0.25100
H823        H  0.85694638  0.35274939  0.19033930     0.08700
H824        H  0.85034427  0.37246713  0.12654296     0.12300
H825        H  0.86326787  0.42811621  0.25342074     0.12300
H826        H  0.86163927  0.46799634  0.21495099     0.12000
H827        H  0.86141759  0.99057905  0.14999665     0.12600
H828        H  0.85086403  0.41305563  0.08810118     0.14500
O829        O  0.85825307  0.81659602  0.31516544    -0.72000
O830        O  0.93044746  0.89045226  0.30628492    -0.72300
O831        O  0.90874533  0.84492969  0.35787342    -0.72100
O832        O  0.88011210  0.86277359  0.26275246    -0.72100
O833        O  0.86345791  0.88641204  0.29833314    -0.72100
O834        O  0.88692681  0.86327414  0.39412482    -0.72100
O835        O  0.91180302  0.91089498  0.34477432    -0.72000
O836        O  0.83797372  0.83831066  0.34746396    -0.72200
V837        V  0.89388014  0.85401067  0.31109942     1.35200
V838        V  0.87530116  0.87421826  0.34552565     1.35200
C839        C  0.83572364  0.81491931  0.33249764     0.77200
C840        C  0.93366681  0.91299892  0.32503623     0.77300
C841        C  0.90315692  0.85151769  0.39219387     0.77100
C842        C  0.86797692  0.87867268  0.26413356     0.77100
O843        O  0.66919424  0.65179264  0.35515175    -0.72000
O844        O  0.59604289  0.57827243  0.35116833    -0.72300
O845        O  0.64486607  0.60546717  0.30487586    -0.72100
O846        O  0.62017136  0.62433724  0.40232700    -0.72100
O847        O  0.59828099  0.64387233  0.36884834    -0.72100
O848        O  0.62673160  0.62834787  0.27064758    -0.72100
O849        O  0.57683359  0.59963835  0.31570612    -0.72000
O850        O  0.64848970  0.67350609  0.32393413    -0.72200
V851        V  0.63222117  0.61546524  0.35279309     1.35200
V852        V  0.61308123  0.63604025  0.32038322     1.35200
C853        C  0.67122471  0.67520909  0.34023612     0.77200
C854        C  0.57403073  0.57649879  0.33248144     0.77300
C855        C  0.63982680  0.61328686  0.27111706     0.77100
C856        C  0.60415893  0.63631691  0.40236891     0.77100
O857        O  0.98981042  0.83558167  0.68809506    -0.72000
O858        O  0.99015552  0.90899391  0.68586946    -0.72300
O859        O  0.96469154  0.85941411  0.64168275    -0.72100
O860        O  0.01549335  0.88568971  0.73278215    -0.72100
O861        O  0.55409584  0.90673629  0.69300107    -0.72100
O862        O  0.50338385  0.87616235  0.60224650    -0.72100
O863        O  0.52777510  0.92721374  0.64427416    -0.72000
O864        O  0.53013800  0.85550331  0.65148937    -0.72200
V865        V  0.99080042  0.87269955  0.68642100     1.35200
V866        V  0.52805872  0.89091443  0.64845998     1.35200
C867        C  0.51011591  0.83314978  0.67040550     0.77200
C868        C  0.50898146  0.93056042  0.66448792     0.77300
C869        C  0.97537697  0.86347287  0.60637587     0.77100
C870        C  0.54340378  0.90191622  0.72835104     0.77100
O871        O  0.96277830  0.64506020  0.65325216    -0.72000
O872        O  0.96340425  0.57230601  0.64908408    -0.72300
O873        O  0.94501832  0.59781656  0.70292986    -0.72100
O874        O  0.98163705  0.61925239  0.59872847    -0.72100
O875        O  0.52506646  0.63888164  0.62681014    -0.72100
O876        O  0.48872195  0.62128282  0.73034723    -0.72100
O877        O  0.50643318  0.59345413  0.67857017    -0.72000
O878        O  0.50736403  0.66708369  0.67811450    -0.72200
V879        V  0.96405956  0.60914022  0.65142156     1.35200
V880        V  0.50602369  0.62983112  0.67792972     1.35200
C881        C  0.48498126  0.66850638  0.66633494     0.77200
C882        C  0.48479630  0.57037253  0.66373946     0.77300
C883        C  0.96075267  0.60567532  0.73442088     0.77100
C884        C  0.50968963  0.63163860  0.59509107     0.77100
O885        O  0.82087591  0.97153722  0.99663753    -0.72000
O886        O  0.89400860  0.97217726  0.98697324    -0.72300
O887        O  0.85107120  0.95311936  0.04268116    -0.72100
O888        O  0.86433784  0.99097222  0.94018747    -0.72100
O889        O  0.88989466  0.53414326  0.96855570    -0.72100
O890        O  0.87128318  0.49626551  0.07168132    -0.72100
O891        O  0.91652560  0.51437674  0.01852886    -0.72000
O892        O  0.84428913  0.51627560  0.02109866    -0.72200
V893        V  0.85794375  0.97282444  0.99208926     1.35200
V894        V  0.87997033  0.51444053  0.01950500     1.35200
C895        C  0.82019213  0.99397609  0.00983381     0.77200
C896        C  0.91757148  0.99302874  0.00196043     0.77300
C897        C  0.85919009  0.96821687  0.07467932     0.77100
C898        C  0.88036331  0.51898335  0.93673420     0.77100
O899        O  0.67664732  0.53586906  0.97797262    -0.72000
O900        O  0.60256685  0.53356448  0.97368052    -0.72300
O901        O  0.65028434  0.56081341  0.02028976    -0.72100
O902        O  0.62800370  0.50810235  0.93107640    -0.72100
O903        O  0.60682345  0.97033496  0.97221534    -0.72100
O904        O  0.63333110  0.02284708  0.06112585    -0.72100
O905        O  0.58372068  0.99672019  0.01653946    -0.72000
O906        O  0.65686168  0.99650719  0.01637690    -0.72200
V907        V  0.63912468  0.53382296  0.97646606     1.35200
V908        V  0.62066283  0.99734912  0.01579846     1.35200
C909        C  0.67938598  0.51644605  0.99754698     0.77200
C910        C  0.58074590  0.51521682  0.99502193     0.77300
C911        C  0.64498777  0.55063992  0.05594392     0.77100
C912        C  0.61246089  0.98020016  0.93646632     0.77100
C913        C  0.55273246  0.51584998  0.99518867    -0.05500
C914        C  0.55339258  0.54306166  0.99053256    -0.05400
C915        C  0.52705641  0.54411458  0.99164601    -0.23600
C916        C  0.49957602  0.51784173  0.99642964     0.18600
C917        C  0.99865561  0.99022216  0.99999168     0.15800
C918        C  0.52529578  0.98946696  0.00009450    -0.18600
C919        C  0.97109172  0.96383870  0.00313076    -0.20400
C920        C  0.94469526  0.96480980  0.00294118    -0.13000
C921        C  0.94547435  0.99219339  0.00063925     0.03700
C922        C  0.97299827  0.51868665  0.99749903    -0.25100
H923        H  0.57439927  0.56363086  0.98681759     0.08700
H924        H  0.52817231  0.56543621  0.98859346     0.12300
H925        H  0.52468946  0.96837399  0.00321710     0.12300
H926        H  0.96994409  0.94247267  0.00558689     0.12000
H927        H  0.92362953  0.94417014  0.00547483     0.12600
H928        H  0.97366250  0.53985135  0.99522878     0.14500
C929        C  0.79189908  0.99403268  0.01170464    -0.05500
C930        C  0.76571818  0.96832064  0.02416000    -0.05400
C931        C  0.73860835  0.96790363  0.02517175    -0.23600
C932        C  0.73713824  0.99294927  0.01261327     0.18600
C933        C  0.76336536  0.51879879  0.99942158     0.15800
C934        C  0.79069548  0.51936838  0.99978019    -0.18600
C935        C  0.76170895  0.54344596  0.98553204    -0.20400
C936        C  0.73435649  0.54252719  0.98470662    -0.13000
C937        C  0.70822070  0.51713787  0.99834732     0.03700
C938        C  0.70983578  0.99242709  0.01247598    -0.25100
H939        H  0.76632773  0.94861405  0.03345935     0.08700
H940        H  0.71873856  0.94786708  0.03522683     0.12300
H941        H  0.81084011  0.53912319  0.98962534     0.12300
H942        H  0.78152561  0.56335591  0.97503346     0.12000
H943        H  0.73370397  0.56184505  0.97367235     0.12600
H944        H  0.68979440  0.97261568  0.02272013     0.14500
C945        C  0.88880868  0.53348536  0.89648860    -0.05500
C946        C  0.87227959  0.51863964  0.86223940    -0.05400
C947        C  0.88177619  0.53108978  0.82374711    -0.23600
C948        C  0.90837551  0.55830781  0.81870867     0.18600
C949        C  0.92493582  0.57364920  0.85302334     0.15800
C950        C  0.91477931  0.56141877  0.89167648    -0.18600
C951        C  0.95201552  0.60035946  0.84800615    -0.20400
C952        C  0.96317127  0.61117521  0.80937295    -0.13000
C953        C  0.94716654  0.59589364  0.77500734     0.03700
C954        C  0.91933248  0.56980811  0.77993476    -0.25100
H955        H  0.85216528  0.49716000  0.86519891     0.08700
H956        H  0.86878432  0.51898594  0.79783112     0.12300
H957        H  0.92788125  0.57295065  0.91783179     0.12300
H958        H  0.96503125  0.61240572  0.87393959     0.12000
H959        H  0.98462231  0.63132193  0.80634564     0.12600
H960        H  0.90696062  0.55764705  0.75363929     0.14500
C961        C  0.59957573  0.95964782  0.90208914    -0.05500
C962        C  0.57416446  0.93146947  0.90810684    -0.05400
C963        C  0.55909333  0.91344290  0.87534668    -0.23600
C964        C  0.56935209  0.92312823  0.83596348     0.18600
C965        C  0.59592544  0.95061631  0.82971137     0.15800
C966        C  0.61077694  0.96878941  0.86278335    -0.18600
C967        C  0.60654232  0.95996574  0.79035514    -0.20400
C968        C  0.59020491  0.94304536  0.75744482    -0.13000
C969        C  0.56280847  0.91664636  0.76326364     0.03700
C970        C  0.55288031  0.90639456  0.80271764    -0.25100
H971        H  0.56510413  0.92390052  0.93810909     0.08700
H972        H  0.53894029  0.89232213  0.88076475     0.12300
H973        H  0.63051129  0.99035571  0.85785212     0.12300
H974        H  0.62700267  0.98081213  0.78496714     0.12000
H975        H  0.59830917  0.95142833  0.72733161     0.12600
H976        H  0.53189301  0.88594334  0.80752552     0.14500
C977        C  0.48467529  0.69678191  0.66816891    -0.05500
C978        C  0.95752296  0.69655690  0.67001184    -0.05400
C979        C  0.95709394  0.72320975  0.67244928    -0.23600
C980        C  0.98382178  0.75059218  0.67221218     0.18600
C981        C  0.51125545  0.75106062  0.66971690     0.15800
C982        C  0.51151308  0.72416978  0.66835023    -0.18600
C983        C  0.53795377  0.77843328  0.66803415    -0.20400
C984        C  0.53748606  0.80509668  0.66829744    -0.13000
C985        C  0.51039191  0.80487762  0.67128727     0.03700
C986        C  0.98359512  0.77751177  0.67371913    -0.25100
H987        H  0.93658324  0.67569475  0.67011443     0.08700
H988        H  0.93585852  0.72240994  0.67415040     0.12300
H989        H  0.53256575  0.72456519  0.66660625     0.12300
H990        H  0.55917026  0.77922116  0.66594563     0.12000
H991        H  0.55836925  0.82597200  0.66643117     0.12600
H992        H  0.96257692  0.77718609  0.67551293     0.14500
C993        C  0.50932065  0.95909760  0.66341536    -0.05500
C994        C  0.53632537  0.98588056  0.65781321    -0.05400
C995        C  0.53700071  0.51311098  0.65749871    -0.23600
C996        C  0.51055253  0.51392264  0.66180107     0.18600
C997        C  0.98315062  0.98699021  0.66646011     0.15800
C998        C  0.98278034  0.95978657  0.66797738    -0.18600
C999        C  0.95658279  0.98773543  0.66918904    -0.20400
C1000       C  0.95715289  0.51490278  0.66745899    -0.13000
C1001       C  0.48432549  0.54177564  0.66399552     0.03700
C1002       C  0.51100360  0.54116983  0.66128244    -0.25100
H1003       H  0.55702088  0.98576355  0.65437379     0.08700
H1004       H  0.55816720  0.53350171  0.65366226     0.12300
H1005       H  0.96183396  0.93913589  0.67187123     0.12300
H1006       H  0.93537387  0.96732158  0.67249243     0.12000
H1007       H  0.93637264  0.51497681  0.66969418     0.12600
H1008       H  0.53201284  0.56185449  0.65813006     0.14500
C1009       C  0.52444099  0.63615426  0.55520985    -0.05500
C1010       C  0.50986382  0.63530939  0.51923576    -0.05400
C1011       C  0.52348887  0.63744539  0.48176427    -0.23600
C1012       C  0.55161625  0.63974808  0.47965993     0.18600
C1013       C  0.56639597  0.64072449  0.51577340     0.15800
C1014       C  0.55298937  0.63942930  0.55308732    -0.18600
C1015       C  0.59394994  0.64195502  0.51411700    -0.20400
C1016       C  0.60644072  0.64135683  0.47706969    -0.13000
C1017       C  0.59199949  0.64018023  0.44086084     0.03700
C1018       C  0.56478585  0.64000514  0.44228352    -0.25100
H1019       H  0.48785190  0.63276146  0.52009846     0.08700
H1020       H  0.51172138  0.63655423  0.45445809     0.12300
H1021       H  0.56433678  0.63970993  0.58057199     0.12300
H1022       H  0.60549416  0.64258980  0.54154445     0.12000
H1023       H  0.62734847  0.64145215  0.47674265     0.12600
H1024       H  0.55323882  0.63862030  0.41453413     0.14500
C1025       C  0.65013544  0.57016018  0.09078440    -0.05500
C1026       C  0.64521461  0.59433024  0.08743590    -0.05400
C1027       C  0.64415690  0.60924813  0.12190954    -0.23600
C1028       C  0.64835593  0.60041388  0.16019290     0.18600
C1029       C  0.65535734  0.57743812  0.16337044     0.15800
C1030       C  0.65603562  0.56238404  0.12874285    -0.18600
C1031       C  0.66022107  0.56892503  0.20132818    -0.20400
C1032       C  0.65657450  0.58183088  0.23603755    -0.13000
C1033       C  0.64774935  0.60336292  0.23359983     0.03700
C1034       C  0.64447437  0.61319849  0.19539167    -0.25100
H1035       H  0.64043585  0.60054362  0.05841019     0.08700
H1036       H  0.63903224  0.62696812  0.11874441     0.12300
H1037       H  0.66000848  0.54384600  0.13147075     0.12300
H1038       H  0.66594018  0.55160419  0.20427323     0.12000
H1039       H  0.65948781  0.57396429  0.26498998     0.12600
H1040       H  0.63796315  0.62997689  0.19307077     0.14500
C1041       C  0.91711506  0.84760712  0.42867840    -0.05500
C1042       C  0.94441811  0.84823533  0.42520566    -0.05400
C1043       C  0.96047356  0.84947851  0.45950877    -0.23600
C1044       C  0.94933742  0.84975508  0.49795379     0.18600
C1045       C  0.92099278  0.84716613  0.50189512     0.15800
C1046       C  0.90512932  0.84630972  0.46721308    -0.18600
C1047       C  0.90959162  0.84671896  0.54044469    -0.20400
C1048       C  0.92676764  0.85046657  0.57460397    -0.13000
C1049       C  0.95574442  0.85499929  0.57080943     0.03700
C1050       C  0.96656712  0.85377799  0.53237606    -0.25100
H1051       H  0.95413176  0.84930979  0.39583928     0.08700
H1052       H  0.98202112  0.85115950  0.45591111     0.12300
H1053       H  0.88396972  0.84558041  0.47017471     0.12300
H1054       H  0.88777330  0.84439304  0.54411947     0.12000
H1055       H  0.91786071  0.85116693  0.60390237     0.12600
H1056       H  0.98873993  0.85687962  0.52913084     0.14500
C1057       C  0.54552790  0.54833721  0.33048821    -0.05500
C1058       C  0.51884018  0.54888071  0.32751358    -0.05400
C1059       C  0.99155498  0.52241331  0.32611086    -0.23600
C1060       C  0.99059305  0.49498188  0.32671914     0.18600
C1061       C  0.51742343  0.99421056  0.32855820     0.15800
C1062       C  0.54472713  0.52092141  0.33113903    -0.18600
C1063       C  0.51643446  0.96673781  0.32760318    -0.20400
C1064       C  0.98910340  0.94028290  0.32522890    -0.13000
C1065       C  0.96240216  0.94091622  0.32475381     0.03700
C1066       C  0.96324877  0.96831351  0.32550296    -0.25100
H1067       H  0.51906928  0.56985299  0.32697495     0.08700
H1068       H  0.97123315  0.52340243  0.32441719     0.12300
H1069       H  0.56532491  0.52043233  0.33288072     0.12300
H1070       H  0.53675360  0.96571448  0.32871411     0.12000
H1071       H  0.98875153  0.91925087  0.32489067     0.12600
H1072       H  0.94263447  0.96883327  0.32476288     0.14500
C1073       C  0.80752503  0.78633335  0.33525038    -0.05500
C1074       C  0.80771124  0.75938638  0.33582581    -0.05400
C1075       C  0.78105145  0.73222139  0.33869376    -0.23600
C1076       C  0.75374194  0.73157162  0.34006387     0.18600
C1077       C  0.75334978  0.75860621  0.33881153     0.15800
C1078       C  0.78025475  0.78581480  0.33710378    -0.18600
C1079       C  0.72604000  0.75794820  0.33864093    -0.20400
C1080       C  0.69934530  0.73075702  0.33927310    -0.13000
C1081       C  0.69950071  0.70380868  0.34105805     0.03700
C1082       C  0.72681350  0.70436083  0.34189781    -0.25100
H1083       H  0.82855035  0.75937032  0.33456961     0.08700
H1084       H  0.78177840  0.71173334  0.33940582     0.12300
H1085       H  0.77996822  0.80654600  0.33623529     0.12300
H1086       H  0.72532243  0.77843403  0.33745244     0.12000
H1087       H  0.67850585  0.73077986  0.33855362     0.12600
H1088       H  0.72708995  0.68362465  0.34268201     0.14500
C1089       C  0.86057874  0.88899039  0.22656298    -0.05500
C1090       C  0.85664181  0.87345071  0.19046000    -0.05400
C1091       C  0.85290596  0.88472458  0.15400800    -0.23600
C1092       C  0.85379568  0.91215904  0.15281585     0.18600
C1093       C  0.85715683  0.92775942  0.18902186     0.15800
C1094       C  0.85994190  0.91578524  0.22579252    -0.18600
C1095       C  0.85903791  0.95568128  0.18753262    -0.20400
C1096       C  0.85886814  0.96856240  0.15042740    -0.13000
C1097       C  0.85608286  0.95345491  0.11421852     0.03700
C1098       C  0.85273416  0.92483947  0.11582081    -0.25100
H1099       H  0.85694634  0.85274941  0.19033932     0.08700
H1100       H  0.85034420  0.87246712  0.12654295     0.12300
H1101       H  0.86326784  0.92811622  0.25342077     0.12300
H1102       H  0.86163929  0.96799637  0.21495100     0.12000
H1103       H  0.86141745  0.49057886  0.14999666     0.12600
H1104       H  0.85086395  0.91305564  0.08810115     0.14500
loop_ 
_geom_bond_atom_site_label_1 
_geom_bond_atom_site_label_2 
_geom_bond_distance 
_geom_bond_site_symmetry_2 
_ccdc_geom_bond_type 
O1            V9   1.898       .  S
O1           C11   1.264       .  A
O2            V9   1.897       .  S
O2           C12   1.264       .  A
O3            V9   1.897       .  S
O3           C13   1.264       .  A
O4            V9   1.904       .  S
O4           C14   1.266       .  A
O5           V10   1.903       .  S
O5           C14   1.265       .  A
O6           V10   1.906       .  S
O6           C13   1.266       .  A
O7           V10   1.896       .  S
O7           C12   1.264       .  A
O8           V10   1.899       .  S
O8           C11   1.264       .  A
V9           V10   2.086       .  T
C11         C245   1.473       .  S
C12         C237   1.468       .  S
C13         C213   1.479       .  S
C14         C261   1.481       .  S
O15          V23   1.902       .  S
O15          C25   1.265       .  A
O16          V23   1.903       .  S
O16          C26   1.265       .  A
O17          V23   1.889       .  S
O17          C27   1.262       .  A
O18          V23   1.895       .  S
O18          C28   1.264       .  A
O19          V24   1.910       .  S
O19          C28   1.266       .  A
O20          V24   1.914       .  S
O20          C27   1.268       .  A
O21          V24   1.890       .  S
O21          C26   1.262       .  A
O22          V24   1.895       .  S
O22          C25   1.263       .  A
V23          V24   2.087       .  T
C25         C253   1.474       .  S
C26         C229   1.470       .  S
C27         C205   1.482       .  S
C28         C189   1.480       .  S
O29          V37   1.903       .  S
O29         C591   1.265       .  A
O30          V37   1.902       .  S
O30         C592   1.265       .  A
O31          V37   1.899       .  S
O31          C41   1.264       .  A
O32          V37   1.904       .  S
O32         C594   1.266       .  A
O33          V38   1.898       .  S
O33          C42   1.264       .  A
O34          V38   1.903       .  S
O34         C593   1.266   1_455  A
O35          V38   1.897       .  S
O35          C40   1.264       .  A
O36          V38   1.898       .  S
O36          C39   1.264       .  A
V37         V590   2.086       .  T
V38         V589   2.086   1_455  T
C39         O581   1.265   1_455  A
C39         C157   1.476       .  S
C40         O582   1.265   1_455  A
C40         C165   1.474       .  S
C41         O586   1.266       .  A
C41         C221   1.480       .  S
C42         O584   1.266       .  A
C42         C141   1.479       .  S
O43          V51   1.901       .  S
O43         C605   1.265       .  A
O44          V51   1.898       .  S
O44         C606   1.264       .  A
O45          V51   1.907       .  S
O45          C55   1.266       .  A
O46          V51   1.913       .  S
O46         C608   1.268       .  A
O47          V52   1.893       .  S
O47          C56   1.264       .  A
O48          V52   1.899   1_655  S
O48         C607   1.265       .  A
O49          V52   1.900       .  S
O49          C54   1.265   1_455  A
O50          V52   1.901       .  S
O50          C53   1.265   1_455  A
V51         V604   2.086       .  T
V52         V603   2.086   1_455  T
C53         O595   1.265       .  A
C53         C149   1.478       .  S
C54         O596   1.264       .  A
C54         C173   1.473       .  S
C55         O600   1.265       .  A
C55         C125   1.481       .  S
C56         O598   1.268   1_455  A
C56         C181   1.483       .  S
O57          V65   1.897       .  S
O57          C67   1.264   1_556  A
O58          V65   1.897       .  S
O58          C68   1.264   1_556  A
O59          V65   1.899   1_554  S
O59          C69   1.264       .  A
O60          V65   1.905       .  S
O60         C346   1.266       .  A
O61          V66   1.902   1_556  S
O61          C70   1.265       .  A
O62          V66   1.908   1_565  S
O62         C345   1.267       .  A
O63          V66   1.900       .  S
O63         C344   1.265   1_545  A
O64          V66   1.903       .  S
O64         C343   1.265   1_545  A
V65         V342   2.086   1_556  T
V66         V341   2.086   1_544  T
C67         O340   1.265       .  A
C67         C101   1.472       .  S
C68         O339   1.265       .  A
C68          C93   1.472       .  S
C69         O338   1.267       .  A
C69         C269   1.483       .  S
C70         O336   1.266   1_545  A
C70         C117   1.482       .  S
O71          V79   1.898       .  S
O71          C81   1.265       .  A
O72          V79   1.894       .  S
O72          C82   1.263       .  A
O73          V79   1.904   1_554  S
O73          C83   1.265       .  A
O74          V79   1.907       .  S
O74         C360   1.267   1_545  A
O75          V80   1.895   1_556  S
O75          C84   1.263       .  A
O76          V80   1.897       .  S
O76         C359   1.264       .  A
O77          V80   1.902       .  S
O77         C358   1.265   1_554  A
O78          V80   1.902       .  S
O78         C357   1.266   1_554  A
V79         V356   2.086   1_546  T
V80         V355   2.086   1_554  T
C81         O354   1.266   1_546  A
C81         C109   1.480       .  S
C82         O353   1.265   1_546  A
C82          C85   1.472       .  S
C83         O352   1.264       .  A
C83         C197   1.475       .  S
C84         O350   1.267       .  A
C84         C133   1.479       .  S
C85          C86   1.404       .  A
C85         C366   1.403   1_546  A
C86          C87   1.396       .  A
C86          H95   1.083       .  S
C87          C88   1.401   1_455  A
C87          H96   1.084       .  S
C88         C646   1.403       .  A
C88         C917   1.415   1_545  A
C89          C91   1.402   1_556  A
C89         C916   1.415       .  A
C89         C642   1.404   1_556  A
C90         C361   1.403   1_554  A
C90         C641   1.404   1_454  A
C90          H97   1.084       .  S
C91          C92   1.397       .  A
C91          H98   1.084       .  S
C92          C93   1.404       .  A
C92          H99   1.083       .  S
C93         C370   1.403   1_554  A
C94         C640   1.403       .  A
C94         C369   1.403   1_546  A
C94         H100   1.085       .  S
C101        C102   1.403       .  A
C101        C382   1.404   1_554  A
C102        C103   1.397       .  A
C102        H111   1.083       .  S
C103        C104   1.402       .  A
C103        H112   1.084       .  S
C104        C110   1.404       .  A
C104        C381   1.415   1_554  A
C105        C107   1.401       .  A
C105        C106   1.405       .  A
C105        C380   1.415   1_546  A
C106        C377   1.404   1_546  A
C106        H113   1.085       .  S
C107        C108   1.397       .  A
C107        H114   1.084       .  S
C108        C109   1.406       .  A
C108        H115   1.083       .  S
C109        C386   1.406   1_546  A
C110        C385   1.406   1_554  A
C110        H116   1.084       .  S
C117        C118   1.405       .  A
C117        C122   1.407       .  A
C118        C119   1.400       .  A
C118        H127   1.083   1_545  S
C119        C120   1.403       .  A
C119        H128   1.083       .  S
C120        C126   1.407       .  A
C120        C121   1.414       .  A
C121        C123   1.402       .  A
C121        C122   1.406       .  A
C122        H129   1.084       .  S
C123        C124   1.398       .  A
C123        H130   1.084       .  S
C124        C125   1.405       .  A
C124        H131   1.083       .  S
C125        C126   1.407       .  A
C126        H132   1.084       .  S
C133        C134   1.407       .  A
C133        C138   1.405       .  A
C134        C135   1.397       .  A
C134        H143   1.083       .  S
C135        C136   1.401       .  A
C135        H144   1.084       .  S
C136        C142   1.405       .  A
C136        C137   1.415       .  A
C137        C139   1.401       .  A
C137        C138   1.406       .  A
C138        H145   1.084       .  S
C139        C140   1.397       .  A
C139        H146   1.084       .  S
C140        C141   1.406       .  A
C140        H147   1.083       .  S
C141        C142   1.405       .  A
C142        H148   1.084       .  S
C149        C154   1.405   1_655  A
C149        C702   1.405       .  A
C150        C151   1.398       .  A
C150        C701   1.405       .  A
C150        H159   1.083       .  S
C151        C152   1.402       .  A
C151        H160   1.084       .  S
C152        C158   1.405       .  A
C152        C705   1.415       .  A
C153        C155   1.402       .  A
C153        C154   1.404       .  A
C153        C704   1.415   1_455  A
C154        H161   1.084       .  S
C155        C156   1.397       .  A
C155        H162   1.084       .  S
C156        C157   1.404       .  A
C156        H163   1.083       .  S
C157        C710   1.405   1_455  A
C158        C709   1.405       .  A
C158        H164   1.084       .  S
C165        C166   1.404       .  A
C165        C722   1.404   1_455  A
C166        C443   1.397       .  A
C166        H175   1.083       .  S
C167        C168   1.402       .  A
C167        C442   1.397   1_545  A
C167        H176   1.084       .  S
C168        C174   1.403       .  A
C168        C997   1.415   1_445  A
C169        C171   1.402       .  A
C169        C170   1.404       .  A
C169        C996   1.415       .  A
C170        C717   1.404       .  A
C170        H177   1.084       .  S
C171        C448   1.397       .  A
C171        H178   1.084       .  S
C172        C447   1.397   1_545  A
C172        C725   1.404       .  A
C172        H179   1.083       .  S
C173        C174   1.404   1_655  A
C173        C724   1.404       .  A
C174        H180   1.084       .  S
C181        C182   1.406       .  A
C181        C186   1.406       .  A
C182        C183   1.403       .  A
C182        H191   1.083   1_455  S
C183        C184   1.406       .  A
C183        H192   1.083       .  S
C184        C190   1.410       .  A
C184        C185   1.413       .  A
C185        C187   1.401       .  A
C185        C186   1.402       .  A
C186        H193   1.084       .  S
C187        C188   1.395       .  A
C187        H194   1.084       .  S
C188        C189   1.405       .  A
C188        H195   1.083       .  S
C189        C190   1.409       .  A
C190        H196   1.084       .  S
C197        C198   1.405       .  A
C197        C202   1.402       .  A
C198        C199   1.400       .  A
C198        H207   1.083       .  S
C199        C200   1.403       .  A
C199        H208   1.084       .  S
C200        C206   1.408       .  A
C200        C201   1.415       .  A
C201        C203   1.399       .  A
C201        C202   1.403       .  A
C202        H209   1.085       .  S
C203        C204   1.394       .  A
C203        H210   1.084       .  S
C204        C205   1.408       .  A
C204        H211   1.083       .  S
C205        C206   1.407       .  A
C206        H212   1.084       .  S
C213        C214   1.406       .  A
C213        C218   1.406       .  A
C214        C215   1.397       .  A
C214        H223   1.083       .  S
C215        C216   1.401       .  A
C215        H224   1.084       .  S
C216        C222   1.405       .  A
C216        C217   1.415       .  A
C217        C219   1.402       .  A
C217        C218   1.406       .  A
C218        H225   1.084       .  S
C219        C220   1.398       .  A
C219        H226   1.084       .  S
C220        C221   1.406       .  A
C220        H227   1.083       .  S
C221        C222   1.405       .  A
C222        H228   1.084       .  S
C229        C230   1.404       .  A
C229        C234   1.403       .  A
C230        C783   1.394   1_455  A
C230        H239   1.083       .  S
C231        C232   1.400   1_545  A
C231        C782   1.394       .  A
C231        H240   1.084       .  S
C232        C514   1.401       .  A
C232       C1061   1.415       .  A
C233        C235   1.402       .  A
C233       C1060   1.415   1_455  A
C233        C510   1.403       .  A
C234        C509   1.403   1_545  A
C234        H241   1.084       .  S
C235        C788   1.397   1_455  A
C235        H242   1.084       .  S
C236        C237   1.404       .  A
C236        C787   1.397       .  A
C236        H243   1.083       .  S
C237        C238   1.402       .  A
C238        C508   1.401       .  A
C238        H244   1.085       .  S
C245        C246   1.404       .  A
C245        C250   1.404       .  A
C246        C247   1.397       .  A
C246        H255   1.083       .  S
C247        C248   1.402       .  A
C247        H256   1.084       .  S
C248        C254   1.404       .  A
C248        C249   1.415       .  A
C249        C251   1.401       .  A
C249        C250   1.403       .  A
C250        H257   1.084       .  S
C251        C252   1.396       .  A
C251        H258   1.084       .  S
C252        C253   1.405       .  A
C252        H259   1.083       .  S
C253        C254   1.405       .  A
C254        H260   1.084       .  S
C261        C262   1.404       .  A
C261        C266   1.409       .  A
C262        C263   1.398       .  A
C262        H271   1.083       .  S
C263        C264   1.402       .  A
C263        H272   1.084       .  S
C264        C270   1.405       .  A
C264        C265   1.413       .  A
C265        C267   1.404       .  A
C265        C266   1.408       .  A
C266        H273   1.084       .  S
C267        C268   1.401       .  A
C267        H274   1.084       .  S
C268        C269   1.405       .  A
C268        H551   1.083       .  S
C269        C270   1.408       .  A
C270        H276   1.084       .  S
H275        C544   1.083       .  S
O277        V285   1.898       .  S
O277        C287   1.264       .  A
O278        V285   1.897       .  S
O278        C288   1.264       .  A
O279        V285   1.897       .  S
O279        C289   1.264       .  A
O280        V285   1.904       .  S
O280        C290   1.266       .  A
O281        V286   1.903       .  S
O281        C290   1.265       .  A
O282        V286   1.906       .  S
O282        C289   1.266       .  A
O283        V286   1.896       .  S
O283        C288   1.264       .  A
O284        V286   1.899       .  S
O284        C287   1.264       .  A
V285        V286   2.086       .  T
C287        C521   1.473       .  S
C288        C513   1.468       .  S
C289        C489   1.479       .  S
C290        C537   1.481       .  S
O291        V299   1.902       .  S
O291        C301   1.265       .  A
O292        V299   1.903       .  S
O292        C302   1.265       .  A
O293        V299   1.889       .  S
O293        C303   1.262       .  A
O294        V299   1.895       .  S
O294        C304   1.264       .  A
O295        V300   1.910       .  S
O295        C304   1.266       .  A
O296        V300   1.914       .  S
O296        C303   1.268       .  A
O297        V300   1.890       .  S
O297        C302   1.262       .  A
O298        V300   1.895       .  S
O298        C301   1.263       .  A
V299        V300   2.087       .  T
C301        C529   1.474       .  S
C302        C505   1.470       .  S
C303        C481   1.482       .  S
C304        C465   1.480       .  S
O305        V313   1.903       .  S
O305        C867   1.265       .  A
O306        V313   1.902       .  S
O306        C868   1.265       .  A
O307        V313   1.899       .  S
O307        C317   1.264       .  A
O308        V313   1.904       .  S
O308        C870   1.266       .  A
O309        V314   1.898       .  S
O309        C318   1.264       .  A
O310        V314   1.903       .  S
O310        C869   1.266   1_455  A
O311        V314   1.897       .  S
O311        C316   1.264       .  A
O312        V314   1.898       .  S
O312        C315   1.264       .  A
V313        V866   2.086       .  T
V314        V865   2.086   1_455  T
C315        O857   1.265   1_455  A
C315        C433   1.476       .  S
C316        O858   1.265   1_455  A
C316        C441   1.474       .  S
C317        O862   1.266       .  A
C317        C497   1.480       .  S
C318        O860   1.266       .  A
C318        C417   1.479       .  S
O319        V327   1.901       .  S
O319        C881   1.265       .  A
O320        V327   1.898       .  S
O320        C882   1.264       .  A
O321        V327   1.907       .  S
O321        C331   1.266       .  A
O322        V327   1.913       .  S
O322        C884   1.268       .  A
O323        V328   1.893       .  S
O323        C332   1.264       .  A
O324        V328   1.899   1_655  S
O324        C883   1.265       .  A
O325        V328   1.900       .  S
O325        C330   1.265   1_455  A
O326        V328   1.901       .  S
O326        C329   1.265   1_455  A
V327        V880   2.086       .  T
V328        V879   2.086   1_455  T
C329        O871   1.265       .  A
C329        C425   1.478       .  S
C330        O872   1.264       .  A
C330        C449   1.473       .  S
C331        O876   1.265       .  A
C331        C401   1.481       .  S
C332        O874   1.268   1_455  A
C332        C457   1.483       .  S
O333        V341   1.897       .  S
O333        C343   1.264   1_556  A
O334        V341   1.897       .  S
O334        C344   1.264   1_556  A
O335        V341   1.899   1_554  S
O335        C345   1.264       .  A
O336        V341   1.905       .  S
O337        V342   1.902   1_556  S
O337        C346   1.265       .  A
O338        V342   1.908       .  S
O339        V342   1.900       .  S
O340        V342   1.903       .  S
C343        C377   1.472       .  S
C344        C369   1.472       .  S
C345        C545   1.483       .  S
C346        C393   1.482       .  S
O347        V355   1.898       .  S
O347        C357   1.265       .  A
O348        V355   1.894       .  S
O348        C358   1.263       .  A
O349        V355   1.904   1_554  S
O349        C359   1.265       .  A
O350        V355   1.907       .  S
O351        V356   1.895   1_556  S
O351        C360   1.263       .  A
O352        V356   1.897   1_545  S
O353        V356   1.902       .  S
O354        V356   1.902       .  S
C357        C385   1.480       .  S
C358        C361   1.472       .  S
C359        C473   1.475       .  S
C360        C409   1.479       .  S
C361        C362   1.404       .  A
C362        C363   1.396       .  A
C362        H371   1.083       .  S
C363        C364   1.401   1_455  A
C363        H372   1.084       .  S
C364        C922   1.403       .  A
C364        C641   1.415       .  A
C365        C640   1.415   1_565  A
C365        C367   1.402   1_556  A
C365        C918   1.404   1_556  A
C366        C917   1.404   1_454  A
C366        H373   1.084       .  S
C367        C368   1.397       .  A
C367        H374   1.084       .  S
C368        C369   1.404       .  A
C368        H375   1.083       .  S
C370        C916   1.403       .  A
C370        H376   1.085       .  S
C377        C378   1.403       .  A
C378        C379   1.397       .  A
C378        H387   1.083       .  S
C379        C380   1.402       .  A
C379        H388   1.084       .  S
C380        C386   1.404       .  A
C381        C383   1.401       .  A
C381        C382   1.405       .  A
C382        H389   1.085       .  S
C383        C384   1.397       .  A
C383        H390   1.084       .  S
C384        C385   1.406       .  A
C384        H391   1.083       .  S
C386        H392   1.084       .  S
C393        C394   1.405       .  A
C393        C398   1.407       .  A
C394        C395   1.400       .  A
C394        H403   1.083       .  S
C395        C396   1.403       .  A
C395        H404   1.083       .  S
C396        C402   1.407       .  A
C396        C397   1.414       .  A
C397        C399   1.402       .  A
C397        C398   1.406       .  A
C398        H405   1.084       .  S
C399        C400   1.398       .  A
C399        H406   1.084       .  S
C400        C401   1.405       .  A
C400        H407   1.083       .  S
C401        C402   1.407       .  A
C402        H408   1.084       .  S
C409        C410   1.407       .  A
C409        C414   1.405       .  A
C410        C411   1.397       .  A
C410        H419   1.083       .  S
C411        C412   1.401       .  A
C411        H420   1.084       .  S
C412        C418   1.405       .  A
C412        C413   1.415       .  A
C413        C415   1.401       .  A
C413        C414   1.406       .  A
C414        H421   1.084       .  S
C415        C416   1.397       .  A
C415        H422   1.084       .  S
C416        C417   1.406       .  A
C416        H423   1.083       .  S
C417        C418   1.405       .  A
C418        H424   1.084       .  S
C425        C978   1.405       .  A
C425        C430   1.405   1_655  A
C426        C977   1.405       .  A
C426        C427   1.398       .  A
C426        H435   1.083       .  S
C427        C428   1.402       .  A
C427        H436   1.084       .  S
C428        C434   1.405       .  A
C428        C981   1.415       .  A
C429        C980   1.415   1_455  A
C429        C431   1.402       .  A
C429        C430   1.404       .  A
C430        H437   1.084       .  S
C431        C432   1.397       .  A
C431        H438   1.084       .  S
C432        C433   1.404       .  A
C432        H439   1.083       .  S
C433        C986   1.405   1_455  A
C434        C985   1.405       .  A
C434        H440   1.084       .  S
C441        C442   1.404       .  A
C441        C998   1.404   1_455  A
C442        H451   1.083       .  S
C443        C444   1.402       .  A
C443        H452   1.084       .  S
C444        C450   1.403       .  A
C444        C721   1.415   1_455  A
C445        C720   1.415   1_565  A
C445        C447   1.402       .  A
C445        C446   1.404       .  A
C446        C993   1.404       .  A
C446        H453   1.084       .  S
C447        H454   1.084       .  S
C448       C1001   1.404       .  A
C448        H455   1.083       .  S
C449       C1000   1.404       .  A
C449        C450   1.404   1_655  A
C450        H456   1.084       .  S
C457        C458   1.406       .  A
C457        C462   1.406       .  A
C458        C459   1.403       .  A
C458        H467   1.083   1_455  S
C459        C460   1.406       .  A
C459        H468   1.083       .  S
C460        C466   1.410       .  A
C460        C461   1.413       .  A
C461        C463   1.401       .  A
C461        C462   1.402       .  A
C462        H469   1.084       .  S
C463        C464   1.395       .  A
C463        H470   1.084       .  S
C464        C465   1.405       .  A
C464        H471   1.083       .  S
C465        C466   1.409       .  A
C466        H472   1.084       .  S
C473        C474   1.405       .  A
C473        C478   1.402       .  A
C474        C475   1.400       .  A
C474        H483   1.083       .  S
C475        C476   1.403       .  A
C475        H484   1.084       .  S
C476        C482   1.408       .  A
C476        C477   1.415       .  A
C477        C479   1.399       .  A
C477        C478   1.403       .  A
C478        H485   1.085       .  S
C479        C480   1.394       .  A
C479        H486   1.084       .  S
C480        C481   1.408       .  A
C480        H487   1.083       .  S
C481        C482   1.407       .  A
C482        H488   1.084       .  S
C489        C490   1.406       .  A
C489        C494   1.406       .  A
C490        C491   1.397       .  A
C490        H499   1.083       .  S
C491        C492   1.401       .  A
C491        H500   1.084       .  S
C492        C498   1.405       .  A
C492        C493   1.415       .  A
C493        C495   1.402       .  A
C493        C494   1.406       .  A
C494        H501   1.084       .  S
C495        C496   1.398       .  A
C495        H502   1.084       .  S
C496        C497   1.406       .  A
C496        H503   1.083       .  S
C497        C498   1.405       .  A
C498        H504   1.084       .  S
C505        C506   1.404       .  A
C505        C510   1.403       .  A
C506       C1059   1.394   1_455  A
C506        H515   1.083       .  S
C507       C1058   1.394       .  A
C507        C508   1.400       .  A
C507        H516   1.084       .  S
C508        C785   1.415       .  A
C509        C784   1.415   1_455  A
C509        C511   1.402       .  A
C510        H517   1.084       .  S
C511       C1064   1.397   1_455  A
C511        H518   1.084       .  S
C512       C1063   1.397       .  A
C512        C513   1.404       .  A
C512        H519   1.083       .  S
C513        C514   1.402       .  A
C514        H520   1.085       .  S
C521        C522   1.404       .  A
C521        C526   1.404       .  A
C522        C523   1.397       .  A
C522        H531   1.083       .  S
C523        C524   1.402       .  A
C523        H532   1.084       .  S
C524        C530   1.404       .  A
C524        C525   1.415       .  A
C525        C527   1.401       .  A
C525        C526   1.403       .  A
C526        H533   1.084       .  S
C527        C528   1.396       .  A
C527        H534   1.084       .  S
C528        C529   1.405       .  A
C528        H535   1.083       .  S
C529        C530   1.405       .  A
C530        H536   1.084       .  S
C537        C538   1.404       .  A
C537        C542   1.409       .  A
C538        C539   1.398       .  A
C538        H547   1.083       .  S
C539        C540   1.402       .  A
C539        H548   1.084       .  S
C540        C546   1.405       .  A
C540        C541   1.413       .  A
C541        C543   1.404       .  A
C541        C542   1.408       .  A
C542        H549   1.084       .  S
C543        C544   1.401       .  A
C543        H550   1.084       .  S
C544        C545   1.405       .  A
C545        C546   1.408       .  A
C546        H552   1.084       .  S
O553        V561   1.898       .  S
O553        C563   1.264       .  A
O554        V561   1.897       .  S
O554        C564   1.264       .  A
O555        V561   1.897       .  S
O555        C565   1.264       .  A
O556        V561   1.904       .  S
O556        C566   1.266       .  A
O557        V562   1.903       .  S
O557        C566   1.265       .  A
O558        V562   1.906       .  S
O558        C565   1.266       .  A
O559        V562   1.896       .  S
O559        C564   1.264       .  A
O560        V562   1.899       .  S
O560        C563   1.264       .  A
V561        V562   2.086       .  T
C563        C797   1.473       .  S
C564        C789   1.468       .  S
C565        C765   1.479       .  S
C566        C813   1.481       .  S
O567        V575   1.902       .  S
O567        C577   1.265       .  A
O568        V575   1.903       .  S
O568        C578   1.265       .  A
O569        V575   1.889       .  S
O569        C579   1.262       .  A
O570        V575   1.895       .  S
O570        C580   1.264       .  A
O571        V576   1.910       .  S
O571        C580   1.266       .  A
O572        V576   1.914       .  S
O572        C579   1.268       .  A
O573        V576   1.890       .  S
O573        C578   1.262       .  A
O574        V576   1.895       .  S
O574        C577   1.263       .  A
V575        V576   2.087       .  T
C577        C805   1.474       .  S
C578        C781   1.470       .  S
C579        C757   1.482       .  S
C580        C741   1.480       .  S
O581        V589   1.903       .  S
O582        V589   1.902       .  S
O583        V589   1.899       .  S
O583        C593   1.264       .  A
O584        V589   1.904   1_455  S
O585        V590   1.898       .  S
O585        C594   1.264       .  A
O586        V590   1.903       .  S
O587        V590   1.897       .  S
O587        C592   1.264       .  A
O588        V590   1.898       .  S
O588        C591   1.264       .  A
C591        C709   1.476       .  S
C592        C717   1.474       .  S
C593        C773   1.480       .  S
C594        C693   1.479       .  S
O595        V603   1.901       .  S
O596        V603   1.898       .  S
O597        V603   1.907       .  S
O597        C607   1.266       .  A
O598        V603   1.913       .  S
O599        V604   1.893       .  S
O599        C608   1.264       .  A
O600        V604   1.899       .  S
O601        V604   1.900       .  S
O601        C606   1.265       .  A
O602        V604   1.901       .  S
O602        C605   1.265       .  A
C605        C701   1.478       .  S
C606        C725   1.473       .  S
C607        C677   1.481       .  S
C608        C733   1.483       .  S
O609        V617   1.897       .  S
O609        C619   1.264   1_556  A
O610        V617   1.897       .  S
O610        C620   1.264   1_556  A
O611        V617   1.899   1_554  S
O611        C621   1.264       .  A
O612        V617   1.905       .  S
O612        C898   1.266       .  A
O613        V618   1.902   1_556  S
O613        C622   1.265       .  A
O614        V618   1.908   1_565  S
O614        C897   1.267       .  A
O615        V618   1.900       .  S
O615        C896   1.265   1_545  A
O616        V618   1.903       .  S
O616        C895   1.265   1_545  A
V617        V894   2.086   1_556  T
V618        V893   2.086   1_544  T
C619        O892   1.265       .  A
C619        C653   1.472       .  S
C620        O891   1.265       .  A
C620        C645   1.472       .  S
C621        O890   1.267       .  A
C621        C821   1.483       .  S
C622        O888   1.266   1_545  A
C622        C669   1.482       .  S
O623        V631   1.898       .  S
O623        C633   1.265       .  A
O624        V631   1.894       .  S
O624        C634   1.263       .  A
O625        V631   1.904   1_554  S
O625        C635   1.265       .  A
O626        V631   1.907       .  S
O626        C912   1.267   1_545  A
O627        V632   1.895   1_556  S
O627        C636   1.263       .  A
O628        V632   1.897       .  S
O628        C911   1.264       .  A
O629        V632   1.902       .  S
O629        C910   1.265   1_554  A
O630        V632   1.902       .  S
O630        C909   1.266   1_554  A
V631        V908   2.086   1_546  T
V632        V907   2.086   1_554  T
C633        O906   1.266   1_546  A
C633        C661   1.480       .  S
C634        O905   1.265   1_546  A
C634        C637   1.472       .  S
C635        O904   1.264       .  A
C635        C749   1.475       .  S
C636        O902   1.267       .  A
C636        C685   1.479       .  S
C637        C638   1.404       .  A
C637        C918   1.403   1_546  A
C638        C639   1.396       .  A
C638        H647   1.083       .  S
C639        C640   1.401       .  A
C639        H648   1.084       .  S
C641        C643   1.402   1_556  A
C642        C913   1.403   1_554  A
C642        H649   1.084       .  S
C643        C644   1.397       .  A
C643        H650   1.084       .  S
C644        C645   1.404       .  A
C644        H651   1.083       .  S
C645        C922   1.403   1_554  A
C646        C921   1.403   1_546  A
C646        H652   1.085       .  S
C653        C654   1.403       .  A
C653        C934   1.404   1_554  A
C654        C655   1.397       .  A
C654        H663   1.083       .  S
C655        C656   1.402       .  A
C655        H664   1.084       .  S
C656        C662   1.404       .  A
C656        C933   1.415   1_554  A
C657        C932   1.415   1_546  A
C657        C659   1.401       .  A
C657        C658   1.405       .  A
C658        C929   1.404   1_546  A
C658        H665   1.085       .  S
C659        C660   1.397       .  A
C659        H666   1.084       .  S
C660        C661   1.406       .  A
C660        H667   1.083       .  S
C661        C938   1.406   1_546  A
C662        C937   1.406   1_554  A
C662        H668   1.084       .  S
C669        C670   1.405       .  A
C669        C674   1.407       .  A
C670        C671   1.400       .  A
C670        H679   1.083   1_545  S
C671        C672   1.403       .  A
C671        H680   1.083       .  S
C672        C678   1.407       .  A
C672        C673   1.414       .  A
C673        C675   1.402       .  A
C673        C674   1.406       .  A
C674        H681   1.084       .  S
C675        C676   1.398       .  A
C675        H682   1.084       .  S
C676        C677   1.405       .  A
C676        H683   1.083       .  S
C677        C678   1.407       .  A
C678        H684   1.084       .  S
C685        C686   1.407       .  A
C685        C690   1.405       .  A
C686        C687   1.397       .  A
C686        H695   1.083       .  S
C687        C688   1.401       .  A
C687        H696   1.084       .  S
C688        C694   1.405       .  A
C688        C689   1.415       .  A
C689        C691   1.401       .  A
C689        C690   1.406       .  A
C690        H697   1.084       .  S
C691        C692   1.397       .  A
C691        H698   1.084       .  S
C692        C693   1.406       .  A
C692        H699   1.083       .  S
C693        C694   1.405       .  A
C694        H700   1.084       .  S
C701        C706   1.405       .  A
C702        C703   1.398       .  A
C702        H711   1.083       .  S
C703        C704   1.402       .  A
C703        H712   1.084       .  S
C704        C710   1.405       .  A
C705        C707   1.402       .  A
C705        C706   1.404       .  A
C706        H713   1.084       .  S
C707        C708   1.397       .  A
C707        H714   1.084       .  S
C708        C709   1.404       .  A
C708        H715   1.083       .  S
C710        H716   1.084       .  S
C717        C718   1.404       .  A
C718        C995   1.397       .  A
C718        H727   1.083       .  S
C719        C994   1.397   1_545  A
C719        C720   1.402       .  A
C719        H728   1.084       .  S
C720        C726   1.403       .  A
C721        C723   1.402       .  A
C721        C722   1.404       .  A
C722        H729   1.084       .  S
C723       C1000   1.397       .  A
C723        H730   1.084       .  S
C724        C999   1.397   1_545  A
C724        H731   1.083       .  S
C725        C726   1.404       .  A
C726        H732   1.084       .  S
C733        C734   1.406       .  A
C733        C738   1.406       .  A
C734        C735   1.403       .  A
C734        H743   1.083       .  S
C735        C736   1.406       .  A
C735        H744   1.083       .  S
C736        C742   1.410       .  A
C736        C737   1.413       .  A
C737        C739   1.401       .  A
C737        C738   1.402       .  A
C738        H745   1.084       .  S
C739        C740   1.395       .  A
C739        H746   1.084       .  S
C740        C741   1.405       .  A
C740        H747   1.083       .  S
C741        C742   1.409       .  A
C742        H748   1.084       .  S
C749        C750   1.405       .  A
C749        C754   1.402       .  A
C750        C751   1.400       .  A
C750        H759   1.083       .  S
C751        C752   1.403       .  A
C751        H760   1.084       .  S
C752        C758   1.408       .  A
C752        C753   1.415       .  A
C753        C755   1.399       .  A
C753        C754   1.403       .  A
C754        H761   1.085       .  S
C755        C756   1.394       .  A
C755        H762   1.084       .  S
C756        C757   1.408       .  A
C756        H763   1.083       .  S
C757        C758   1.407       .  A
C758        H764   1.084       .  S
C765        C766   1.406       .  A
C765        C770   1.406       .  A
C766        C767   1.397       .  A
C766        H775   1.083       .  S
C767        C768   1.401       .  A
C767        H776   1.084       .  S
C768        C774   1.405       .  A
C768        C769   1.415       .  A
C769        C771   1.402       .  A
C769        C770   1.406       .  A
C770        H777   1.084       .  S
C771        C772   1.398       .  A
C771        H778   1.084       .  S
C772        C773   1.406       .  A
C772        H779   1.083       .  S
C773        C774   1.405       .  A
C774        H780   1.084       .  S
C781        C782   1.404       .  A
C781        C786   1.403       .  A
C782        H791   1.083       .  S
C783        C784   1.400   1_545  A
C783        H792   1.084       .  S
C784       C1066   1.401       .  A
C785        C787   1.402       .  A
C785       C1062   1.403       .  A
C786       C1061   1.403   1_545  A
C786        H793   1.084       .  S
C787        H794   1.084       .  S
C788        C789   1.404       .  A
C788        H795   1.083       .  S
C789        C790   1.402       .  A
C790       C1060   1.401       .  A
C790        H796   1.085       .  S
C797        C798   1.404       .  A
C797        C802   1.404       .  A
C798        C799   1.397       .  A
C798        H807   1.083       .  S
C799        C800   1.402       .  A
C799        H808   1.084       .  S
C800        C806   1.404       .  A
C800        C801   1.415       .  A
C801        C803   1.401       .  A
C801        C802   1.403       .  A
C802        H809   1.084       .  S
C803        C804   1.396       .  A
C803        H810   1.084       .  S
C804        C805   1.405       .  A
C804        H811   1.083       .  S
C805        C806   1.405       .  A
C806        H812   1.084       .  S
C813        C814   1.404       .  A
C813        C818   1.409       .  A
C814        C815   1.398       .  A
C814        H823   1.083       .  S
C815        C816   1.402       .  A
C815        H824   1.084       .  S
C816        C822   1.405       .  A
C816        C817   1.413       .  A
C817        C819   1.404       .  A
C817        C818   1.408       .  A
C818        H825   1.084       .  S
C819        C820   1.401       .  A
C819        H826   1.084       .  S
C820        C821   1.405       .  A
C820       H1103   1.083       .  S
C821        C822   1.408       .  A
C822        H828   1.084       .  S
H827       C1096   1.083       .  S
O829        V837   1.898       .  S
O829        C839   1.264       .  A
O830        V837   1.897       .  S
O830        C840   1.264       .  A
O831        V837   1.897       .  S
O831        C841   1.264       .  A
O832        V837   1.904       .  S
O832        C842   1.266       .  A
O833        V838   1.903       .  S
O833        C842   1.265       .  A
O834        V838   1.906       .  S
O834        C841   1.266       .  A
O835        V838   1.896       .  S
O835        C840   1.264       .  A
O836        V838   1.899       .  S
O836        C839   1.264       .  A
V837        V838   2.086       .  T
C839       C1073   1.473       .  S
C840       C1065   1.468       .  S
C841       C1041   1.479       .  S
C842       C1089   1.481       .  S
O843        V851   1.902       .  S
O843        C853   1.265       .  A
O844        V851   1.903       .  S
O844        C854   1.265       .  A
O845        V851   1.889       .  S
O845        C855   1.262       .  A
O846        V851   1.895       .  S
O846        C856   1.264       .  A
O847        V852   1.910       .  S
O847        C856   1.266       .  A
O848        V852   1.914       .  S
O848        C855   1.268       .  A
O849        V852   1.890       .  S
O849        C854   1.262       .  A
O850        V852   1.895       .  S
O850        C853   1.263       .  A
V851        V852   2.087       .  T
C853       C1081   1.474       .  S
C854       C1057   1.470       .  S
C855       C1033   1.482       .  S
C856       C1017   1.480       .  S
O857        V865   1.903       .  S
O858        V865   1.902       .  S
O859        V865   1.899       .  S
O859        C869   1.264       .  A
O860        V865   1.904   1_455  S
O861        V866   1.898       .  S
O861        C870   1.264       .  A
O862        V866   1.903       .  S
O863        V866   1.897       .  S
O863        C868   1.264       .  A
O864        V866   1.898       .  S
O864        C867   1.264       .  A
C867        C985   1.476       .  S
C868        C993   1.474       .  S
C869       C1049   1.480       .  S
C870        C969   1.479       .  S
O871        V879   1.901       .  S
O872        V879   1.898       .  S
O873        V879   1.907       .  S
O873        C883   1.266       .  A
O874        V879   1.913       .  S
O875        V880   1.893       .  S
O875        C884   1.264       .  A
O876        V880   1.899       .  S
O877        V880   1.900       .  S
O877        C882   1.265       .  A
O878        V880   1.901       .  S
O878        C881   1.265       .  A
C881        C977   1.478       .  S
C882       C1001   1.473       .  S
C883        C953   1.481       .  S
C884       C1009   1.483       .  S
O885        V893   1.897       .  S
O885        C895   1.264   1_556  A
O886        V893   1.897       .  S
O886        C896   1.264   1_556  A
O887        V893   1.899   1_554  S
O887        C897   1.264       .  A
O888        V893   1.905       .  S
O889        V894   1.902   1_556  S
O889        C898   1.265       .  A
O890        V894   1.908       .  S
O891        V894   1.900       .  S
O892        V894   1.903       .  S
C895        C929   1.472       .  S
C896        C921   1.472       .  S
C897       C1097   1.483       .  S
C898        C945   1.482       .  S
O899        V907   1.898       .  S
O899        C909   1.265       .  A
O900        V907   1.894       .  S
O900        C910   1.263       .  A
O901        V907   1.904   1_554  S
O901        C911   1.265       .  A
O902        V907   1.907       .  S
O903        V908   1.895   1_556  S
O903        C912   1.263       .  A
O904        V908   1.897   1_545  S
O905        V908   1.902       .  S
O906        V908   1.902       .  S
C909        C937   1.480       .  S
C910        C913   1.472       .  S
C911       C1025   1.475       .  S
C912        C961   1.479       .  S
C913        C914   1.404       .  A
C914        C915   1.396       .  A
C914        H923   1.083       .  S
C915        C916   1.401       .  A
C915        H924   1.084       .  S
C917        C919   1.402   1_556  A
C918        H925   1.084       .  S
C919        C920   1.397       .  A
C919        H926   1.084       .  S
C920        C921   1.404       .  A
C920        H927   1.083       .  S
C922        H928   1.085       .  S
C929        C930   1.403       .  A
C930        C931   1.397       .  A
C930        H939   1.083       .  S
C931        C932   1.402       .  A
C931        H940   1.084       .  S
C932        C938   1.404       .  A
C933        C935   1.401       .  A
C933        C934   1.405       .  A
C934        H941   1.085       .  S
C935        C936   1.397       .  A
C935        H942   1.084       .  S
C936        C937   1.406       .  A
C936        H943   1.083       .  S
C938        H944   1.084       .  S
C945        C946   1.405       .  A
C945        C950   1.407       .  A
C946        C947   1.400       .  A
C946        H955   1.083       .  S
C947        C948   1.403       .  A
C947        H956   1.083       .  S
C948        C954   1.407       .  A
C948        C949   1.414       .  A
C949        C951   1.402       .  A
C949        C950   1.406       .  A
C950        H957   1.084       .  S
C951        C952   1.398       .  A
C951        H958   1.084       .  S
C952        C953   1.405       .  A
C952        H959   1.083       .  S
C953        C954   1.407       .  A
C954        H960   1.084       .  S
C961        C962   1.407       .  A
C961        C966   1.405       .  A
C962        C963   1.397       .  A
C962        H971   1.083       .  S
C963        C964   1.401       .  A
C963        H972   1.084       .  S
C964        C970   1.405       .  A
C964        C965   1.415       .  A
C965        C967   1.401       .  A
C965        C966   1.406       .  A
C966        H973   1.084       .  S
C967        C968   1.397       .  A
C967        H974   1.084       .  S
C968        C969   1.406       .  A
C968        H975   1.083       .  S
C969        C970   1.405       .  A
C970        H976   1.084       .  S
C977        C982   1.405       .  A
C978        C979   1.398       .  A
C978        H987   1.083       .  S
C979        C980   1.402       .  A
C979        H988   1.084       .  S
C980        C986   1.405       .  A
C981        C983   1.402       .  A
C981        C982   1.404       .  A
C982        H989   1.084       .  S
C983        C984   1.397       .  A
C983        H990   1.084       .  S
C984        C985   1.404       .  A
C984        H991   1.083       .  S
C986        H992   1.084       .  S
C993        C994   1.404       .  A
C994       H1003   1.083       .  S
C995        C996   1.402       .  A
C995       H1004   1.084       .  S
C996       C1002   1.403       .  A
C997        C999   1.402       .  A
C997        C998   1.404       .  A
C998       H1005   1.084       .  S
C999       H1006   1.084       .  S
C1000      H1007   1.083       .  S
C1001      C1002   1.404       .  A
C1002      H1008   1.084       .  S
C1009      C1010   1.406       .  A
C1009      C1014   1.406       .  A
C1010      C1011   1.403       .  A
C1010      H1019   1.083       .  S
C1011      C1012   1.406       .  A
C1011      H1020   1.083       .  S
C1012      C1018   1.410       .  A
C1012      C1013   1.413       .  A
C1013      C1015   1.401       .  A
C1013      C1014   1.402       .  A
C1014      H1021   1.084       .  S
C1015      C1016   1.395       .  A
C1015      H1022   1.084       .  S
C1016      C1017   1.405       .  A
C1016      H1023   1.083       .  S
C1017      C1018   1.409       .  A
C1018      H1024   1.084       .  S
C1025      C1026   1.405       .  A
C1025      C1030   1.402       .  A
C1026      C1027   1.400       .  A
C1026      H1035   1.083       .  S
C1027      C1028   1.403       .  A
C1027      H1036   1.084       .  S
C1028      C1034   1.408       .  A
C1028      C1029   1.415       .  A
C1029      C1031   1.399       .  A
C1029      C1030   1.403       .  A
C1030      H1037   1.085       .  S
C1031      C1032   1.394       .  A
C1031      H1038   1.084       .  S
C1032      C1033   1.408       .  A
C1032      H1039   1.083       .  S
C1033      C1034   1.407       .  A
C1034      H1040   1.084       .  S
C1041      C1042   1.406       .  A
C1041      C1046   1.406       .  A
C1042      C1043   1.397       .  A
C1042      H1051   1.083       .  S
C1043      C1044   1.401       .  A
C1043      H1052   1.084       .  S
C1044      C1050   1.405       .  A
C1044      C1045   1.415       .  A
C1045      C1047   1.402       .  A
C1045      C1046   1.406       .  A
C1046      H1053   1.084       .  S
C1047      C1048   1.398       .  A
C1047      H1054   1.084       .  S
C1048      C1049   1.406       .  A
C1048      H1055   1.083       .  S
C1049      C1050   1.405       .  A
C1050      H1056   1.084       .  S
C1057      C1058   1.404       .  A
C1057      C1062   1.403       .  A
C1058      H1067   1.083       .  S
C1059      C1060   1.400       .  A
C1059      H1068   1.084       .  S
C1061      C1063   1.402       .  A
C1062      H1069   1.084       .  S
C1063      H1070   1.084       .  S
C1064      C1065   1.404       .  A
C1064      H1071   1.083       .  S
C1065      C1066   1.402       .  A
C1066      H1072   1.085       .  S
C1073      C1074   1.404       .  A
C1073      C1078   1.404       .  A
C1074      C1075   1.397       .  A
C1074      H1083   1.083       .  S
C1075      C1076   1.402       .  A
C1075      H1084   1.084       .  S
C1076      C1082   1.404       .  A
C1076      C1077   1.415       .  A
C1077      C1079   1.401       .  A
C1077      C1078   1.403       .  A
C1078      H1085   1.084       .  S
C1079      C1080   1.396       .  A
C1079      H1086   1.084       .  S
C1080      C1081   1.405       .  A
C1080      H1087   1.083       .  S
C1081      C1082   1.405       .  A
C1082      H1088   1.084       .  S
C1089      C1090   1.404       .  A
C1089      C1094   1.409       .  A
C1090      C1091   1.398       .  A
C1090      H1099   1.083       .  S
C1091      C1092   1.402       .  A
C1091      H1100   1.084       .  S
C1092      C1098   1.405       .  A
C1092      C1093   1.413       .  A
C1093      C1095   1.404       .  A
C1093      C1094   1.408       .  A
C1094      H1101   1.084       .  S
C1095      C1096   1.401       .  A
C1095      H1102   1.084       .  S
C1096      C1097   1.405       .  A
C1097      C1098   1.408       .  A
C1098      H1104   1.084       .  S
