geometry optimzed in LAMMPS
_audit_creation_date              2020-12-01 
_audit_creation_method            'lammps2cif' 
_symmetry_space_group_name_H-M    'P1' 
_symmetry_Int_Tables_number       1 
_symmetry_cell_setting            triclinic 
loop_ 
_symmetry_equiv_pos_as_xyz 
  x,y,z 
_cell_length_a                    56.15049791 
_cell_length_b                    56.003650001291895 
_cell_length_c                    53.58426844889578 
_cell_angle_alpha                 90.00752296082602 
_cell_angle_beta                  89.73574744876028 
_cell_angle_gamma                 119.8373541327393 
loop_ 
_atom_site_label 
_atom_site_type_symbol 
_atom_site_fract_x 
_atom_site_fract_y 
_atom_site_fract_z 
_atom_site_charge 
O1          O  0.74566033  0.95968909  0.41520560    -0.73800
O2          O  0.77722936  0.91413166  0.43087442    -0.73800
O3          O  0.74095793  0.91223751  0.39659621    -0.73900
O4          O  0.78247877  0.96157703  0.44908610    -0.73900
O5          O  0.74805856  0.93787387  0.47588705    -0.73800
O6          O  0.70660969  0.88790517  0.42324265    -0.73800
O7          O  0.74265916  0.89011980  0.45749077    -0.73800
O8          O  0.71171613  0.93541428  0.44225310    -0.73900
Ni9        Ni  0.76278999  0.93776742  0.42193236     1.25400
Ni10       Ni  0.72602591  0.91192523  0.45061367     1.25400
C11         C  0.72376192  0.95532493  0.42675839     0.88400
C12         C  0.76497564  0.89470338  0.44688767     0.88300
C13         C  0.71718880  0.89170591  0.40131186     0.88400
C14         C  0.77201285  0.95812654  0.47097003     0.88500
O15         O  0.61920349  0.06987827  0.42247973    -0.73800
O16         O  0.56750419  0.09224102  0.40180469    -0.73800
O17         O  0.57011855  0.06164113  0.43997598    -0.73900
O18         O  0.61667846  0.10104491  0.38493165    -0.73900
O19         O  0.59571384  0.06351208  0.36113911    -0.73800
O20         O  0.54847171  0.02374769  0.41678462    -0.73800
O21         O  0.54588575  0.05411498  0.37882483    -0.73800
O22         O  0.59769400  0.03258747  0.39843171    -0.73900
Ni23       Ni  0.59409943  0.08251615  0.41316405     1.25400
Ni24       Ni  0.57111507  0.04214982  0.38795107     1.25400
C25         C  0.61716730  0.04779324  0.41324413     0.88400
C26         C  0.54807784  0.07656559  0.38699763     0.88300
C27         C  0.55158564  0.03637855  0.43758349     0.88400
C28         C  0.61436726  0.08874152  0.36422747     0.88500
O29         O  0.02005036  0.23776527  0.90884460    -0.73800
O30         O  0.06752699  0.21014896  0.92993011    -0.73800
O31         O  0.01790783  0.20198838  0.94413467    -0.73900
O32         O  0.06962061  0.24553080  0.89390055    -0.73900
O33         O  0.09029414  0.28070484  0.92034615    -0.73800
O34         O  0.03808779  0.23659161  0.97126056    -0.73800
O35         O  0.08828091  0.24559743  0.95610193    -0.73800
O36         O  0.04045953  0.27202275  0.93629823    -0.73900
Ni37       Ni  0.04309979  0.22265334  0.91818698     1.25400
Ni38       Ni  0.06506841  0.25998829  0.94692425     1.25400
C39         C  0.02216497  0.25912881  0.91976833     0.88400
C40         C  0.08561073  0.22340842  0.94669998     0.88300
C41         C  0.01928686  0.21205007  0.96584273     0.88400
C42         C  0.08838689  0.27017319  0.89865697     0.88500
O43         O  0.89990699  0.35369869  0.92114103    -0.73800
O44         O  0.86678599  0.39790406  0.90556834    -0.73800
O45         O  0.86143764  0.35009235  0.88847521    -0.73900
O46         O  0.90477183  0.40136769  0.93887066    -0.73900
O47         O  0.93824724  0.42475152  0.91118380    -0.73800
O48         O  0.89443562  0.37317545  0.86025041    -0.73800
O49         O  0.90062161  0.42151712  0.87818704    -0.73800
O50         O  0.93242055  0.37701168  0.89259526    -0.73900
Ni51       Ni  0.88204613  0.37494850  0.91455440     1.25400
Ni52       Ni  0.91758283  0.40000242  0.88457133     1.25400
C53         C  0.92131526  0.35781199  0.90884352     0.88400
C54         C  0.87863661  0.41715302  0.88931919     0.88300
C55         C  0.87087610  0.35287296  0.86625123     0.88400
C56         C  0.92861647  0.42141372  0.93347181     0.88500
O57         O  0.24140095  0.01962569  0.59455475    -0.73800
O58         O  0.21055354  0.06474797  0.57515163    -0.73800
O59         O  0.20322556  0.01507621  0.56094800    -0.73900
O60         O  0.24828004  0.06906873  0.60905987    -0.73900
O61         O  0.28174869  0.08953005  0.58078660    -0.73800
O62         O  0.23583205  0.03577903  0.53194107    -0.73800
O63         O  0.24439567  0.08599445  0.54729262    -0.73800
O64         O  0.27351964  0.03969909  0.56498982    -0.73900
Ni65       Ni  0.22467655  0.04137963  0.58594106     1.25400
Ni66       Ni  0.26003355  0.06350501  0.55522375     1.25400
C67         C  0.26233290  0.02207800  0.58256898     0.88400
C68         C  0.22289121  0.08319818  0.55831276     0.88300
C69         C  0.21207909  0.01627826  0.53865676     0.88400
C70         C  0.27236927  0.08822145  0.60295286     0.88500
O71         O  0.35935955  0.90259410  0.59033096    -0.73800
O72         O  0.40402442  0.87020682  0.60482704    -0.73800
O73         O  0.35782932  0.86583028  0.62421148    -0.73900
O74         O  0.40555993  0.90661148  0.57041351    -0.73900
O75         O  0.43063586  0.94173187  0.59586114    -0.73800
O76         O  0.38265071  0.90022350  0.65051662    -0.73800
O77         O  0.42953944  0.90534054  0.63022704    -0.73800
O78         O  0.38398460  0.93665350  0.61698343    -0.73900
Ni79       Ni  0.38086652  0.88514570  0.59648825     1.25400
Ni80       Ni  0.40771589  0.92227638  0.62429832     1.25400
C81         C  0.36405426  0.92465967  0.60168692     0.88400
C82         C  0.42377949  0.88231421  0.62030694     0.88300
C83         C  0.36215809  0.87626039  0.64606579     0.88400
C84         C  0.42578247  0.93082876  0.57403472     0.88500
O85         O  0.40246742  0.28698115  0.74838399    -0.73800
O86         O  0.42915578  0.23832562  0.76827112    -0.73800
O87         O  0.39362717  0.23684558  0.73317409    -0.73900
O88         O  0.43855573  0.28848717  0.78317582    -0.73900
O89         O  0.40409831  0.26877369  0.81065254    -0.73800
O90         O  0.35912012  0.21662158  0.76049849    -0.73800
O91         O  0.39436471  0.21823355  0.79536482    -0.73800
O92         O  0.36840051  0.26683434  0.77621841    -0.73900
Ni93       Ni  0.41717690  0.26341125  0.75724833     1.25400
Ni94       Ni  0.38029735  0.24189736  0.78665162     1.25400
C95         C  0.38114926  0.28495107  0.75933021     0.88400
C96         C  0.41578652  0.22004758  0.78500815     0.88300
C97         C  0.36912967  0.21802876  0.73860802     0.88400
C98         C  0.42872285  0.28726700  0.80504537     0.88500
O99         O  0.29099092  0.41189085  0.75408518    -0.73800
O100        O  0.24295561  0.44161351  0.74248321    -0.73800
O101        O  0.24441111  0.40575330  0.77578857    -0.73900
O102        O  0.28959822  0.44832856  0.72120719    -0.73900
O103        O  0.26514999  0.41370182  0.69500439    -0.73800
O104        O  0.21949095  0.37101255  0.74990136    -0.73800
O105        O  0.21809705  0.40656734  0.71680803    -0.73800
O106        O  0.26608538  0.37768526  0.72771000    -0.73900
Ni107      Ni  0.26791038  0.42813050  0.74934210     1.25400
Ni108      Ni  0.24131591  0.39102089  0.72144981     1.25400
C109        C  0.28644796  0.38992855  0.74252574     0.88400
C110        C  0.22254602  0.42870920  0.72771633     0.88300
C111        C  0.22431772  0.38153946  0.77183993     0.88400
C112        C  0.28494679  0.43807697  0.69925296     0.88500
O113        O  0.67663018  0.55822212  0.25283220    -0.73800
O114        O  0.72757110  0.53270755  0.26898900    -0.73800
O115        O  0.67953948  0.52521140  0.28857162    -0.73900
O116        O  0.72412110  0.56482415  0.23266450    -0.73900
O117        O  0.74752602  0.60182931  0.25661983    -0.73800
O118        O  0.70249104  0.56199065  0.31297668    -0.73800
O119        O  0.75016304  0.56984876  0.29291102    -0.73800
O120        O  0.70018413  0.59467205  0.27743054    -0.73900
Ni121      Ni  0.70109421  0.54388359  0.25987402     1.25400
Ni122      Ni  0.72596323  0.58336644  0.28578739     1.25400
C123        C  0.68014862  0.58065141  0.26278479     0.88400
C124        C  0.74728826  0.54739559  0.28400037     0.88300
C125        C  0.68334234  0.53707221  0.30973669     0.88400
C126        C  0.74327033  0.58974494  0.23539548     0.88500
O127        O  0.56858643  0.68745567  0.26435178    -0.73800
O128        O  0.54114034  0.73710889  0.24978062    -0.73800
O129        O  0.53144913  0.68770353  0.23210400    -0.73900
O130        O  0.57779662  0.73654020  0.28265629    -0.73900
O131        O  0.61148340  0.75859036  0.25484728    -0.73800
O132        O  0.56497555  0.70882798  0.20391712    -0.73800
O133        O  0.57497892  0.75871572  0.22198571    -0.73800
O134        O  0.60179595  0.70943937  0.23611428    -0.73900
Ni135      Ni  0.55355462  0.71148081  0.25825132     1.25400
Ni136      Ni  0.58947000  0.73473143  0.22822524     1.25400
C137        C  0.58956506  0.69014553  0.25217813     0.88400
C138        C  0.55373281  0.75608770  0.23337392     0.88300
C139        C  0.54075481  0.68970513  0.20993132     0.88400
C140        C  0.60220449  0.75546431  0.27725624     0.88500
O141        O  0.05733724  0.60286489  0.08798170    -0.73800
O142        O  0.09102535  0.55926328  0.10267347    -0.73800
O143        O  0.05184450  0.55518010  0.07060943    -0.73900
O144        O  0.09700236  0.60718913  0.11954336    -0.73900
O145        O  0.06565181  0.58444693  0.14911840    -0.73800
O146        O  0.01906749  0.53265303  0.09909614    -0.73800
O147        O  0.05800730  0.53559680  0.13073492    -0.73800
O148        O  0.02632469  0.58094411  0.11806098    -0.73900
Ni149      Ni  0.07540763  0.58191133  0.09417411     1.25400
Ni150      Ni  0.04109434  0.55752283  0.12530482     1.25400
C151        C  0.03650430  0.59922263  0.10089694     0.88400
C152        C  0.07988039  0.54021640  0.11916535     0.88300
C153        C  0.02796860  0.53558472  0.07653689     0.88400
C154        C  0.08902741  0.60455186  0.14227747     0.88500
O155        O  0.94497855  0.72497736  0.09499835    -0.73800
O156        O  0.90229148  0.75863019  0.07593641    -0.73800
O157        O  0.89718320  0.72109288  0.11068935    -0.73900
O158        O  0.95021480  0.76304547  0.06079815    -0.73900
O159        O  0.92739653  0.72965337  0.03301078    -0.73800
O160        O  0.87438584  0.68673029  0.08385443    -0.73800
O161        O  0.87881952  0.72398650  0.04946177    -0.73800
O162        O  0.92251076  0.69206683  0.06676004    -0.73900
Ni163      Ni  0.92444344  0.74312235  0.08662358     1.25400
Ni164      Ni  0.89991872  0.70691745  0.05729013     1.25400
C165        C  0.94104732  0.70324941  0.08342430     0.88400
C166        C  0.88340078  0.74652842  0.05960023     0.88300
C167        C  0.87715336  0.69715379  0.10571047     0.88400
C168        C  0.94776865  0.75317609  0.03886947     0.88500
O169        O  0.53854245  0.90210706  0.08215836    -0.73800
O170        O  0.46256237  0.87540406  0.09828368    -0.73800
O171        O  0.49898796  0.91185062  0.06482246    -0.73900
O172        O  0.50173886  0.86516252  0.11527742    -0.73900
O173        O  0.51389069  0.89836575  0.14361269    -0.73800
O174        O  0.51216459  0.94610693  0.09215574    -0.73800
O175        O  0.47526451  0.90993102  0.12532449    -0.73800
O176        O  0.55072010  0.93493354  0.11093895    -0.73900
Ni177      Ni  0.50004833  0.88746883  0.08914614     1.25400
Ni178      Ni  0.51344075  0.92355376  0.11901846     1.25400
C179        C  0.55705191  0.92275120  0.09420997     0.88400
C180        C  0.45655932  0.88853148  0.11438726     0.88300
C181        C  0.50502888  0.93654357  0.06995967     0.88400
C182        C  0.50816668  0.87384307  0.13767502     0.88500
O183        O  0.77358431  0.01815034  0.08955347    -0.73800
O184        O  0.84980365  0.06444250  0.07212376    -0.73800
O185        O  0.81536981  0.06649349  0.10702819    -0.73900
O186        O  0.80847843  0.01632272  0.05522152    -0.73900
O187        O  0.79714172  0.03910561  0.02798283    -0.73800
O188        O  0.80311220  0.08887832  0.08024871    -0.73800
O189        O  0.83797989  0.08772039  0.04588739    -0.73800
O190        O  0.76245827  0.04058277  0.06173447    -0.73900
Ni191      Ni  0.81221924  0.04055622  0.08200766     1.25400
Ni192      Ni  0.79981841  0.06495181  0.05305987     1.25400
C193        C  0.75549673  0.02143060  0.07789762     0.88400
C194        C  0.85619966  0.08354533  0.05592138     0.88300
C195        C  0.81031614  0.08593490  0.10221527     0.88400
C196        C  0.80160508  0.01933405  0.03319253     0.88500
O197        O  0.87009168  0.27784738  0.25109465    -0.73800
O198        O  0.79328942  0.23287633  0.26764729    -0.73800
O199        O  0.83475880  0.28185173  0.28331040    -0.73900
O200        O  0.82828435  0.22872533  0.23493529    -0.73900
O201        O  0.83941460  0.20712941  0.26358460    -0.73800
O202        O  0.84563675  0.26041341  0.31238863    -0.73800
O203        O  0.80417458  0.21074245  0.29598795    -0.73800
O204        O  0.88051288  0.25627323  0.28041053    -0.73900
Ni205      Ni  0.83122764  0.25607251  0.25818590     1.25400
Ni206      Ni  0.84274142  0.23283484  0.28914520     1.25400
C207        C  0.88787081  0.27459939  0.26334799     0.88400
C208        C  0.78620381  0.21427084  0.28450089     0.88300
C209        C  0.84166014  0.28013573  0.30566712     0.88400
C210        C  0.83274539  0.20920689  0.24115613     0.88500
O211        O  0.10516155  0.39819267  0.26167495    -0.73800
O212        O  0.18241067  0.43119959  0.24548867    -0.73800
O213        O  0.13936423  0.43450592  0.22698301    -0.73900
O214        O  0.14859939  0.39513595  0.28080719    -0.73900
O215        O  0.13905132  0.35994155  0.25544661    -0.73800
O216        O  0.12970357  0.39950804  0.20126656    -0.73800
O217        O  0.17283828  0.39571445  0.22047193    -0.73800
O218        O  0.09642997  0.36359117  0.23585528    -0.73900
Ni219      Ni  0.14423608  0.41598690  0.25471191     1.25400
Ni220      Ni  0.13425735  0.37848767  0.22736325     1.25400
C221        C  0.08802699  0.37568917  0.25080176     0.88400
C222        C  0.19020212  0.41866677  0.23031400     0.88300
C223        C  0.13246647  0.42329490  0.20546654     0.88400
C224        C  0.14543371  0.37114745  0.27706840     0.88500
O225        O  0.20214353  0.23095697  0.42417896    -0.73800
O226        O  0.12726973  0.20497493  0.44383916    -0.73800
O227        O  0.16033903  0.23733261  0.40632163    -0.73900
O228        O  0.16883053  0.19856200  0.46106724    -0.73900
O229        O  0.18223558  0.23534800  0.48549584    -0.73800
O230        O  0.17484698  0.27469948  0.43006977    -0.73800
O231        O  0.14101953  0.24270877  0.46698647    -0.73800
O232        O  0.21572490  0.26725831  0.44923470    -0.73900
Ni233      Ni  0.16411202  0.21667209  0.43293466     1.25400
Ni234      Ni  0.17884975  0.25635216  0.45876623     1.25400
C235        C  0.22126686  0.25276760  0.43439255     0.88400
C236        C  0.12196502  0.21965886  0.45870275     0.88300
C237        C  0.16618912  0.26236882  0.40910084     0.88400
C238        C  0.17764498  0.21078768  0.48195908     0.88500
O239        O  0.43799048  0.33661836  0.42725362    -0.73800
O240        O  0.51111532  0.39258248  0.40706907    -0.73800
O241        O  0.47479609  0.38790049  0.44285174    -0.73900
O242        O  0.47494858  0.34088703  0.39191449    -0.73900
O243        O  0.45674947  0.35777089  0.36508969    -0.73800
O244        O  0.45651855  0.40547827  0.41689309    -0.73800
O245        O  0.49225922  0.40957824  0.38113270    -0.73800
O246        O  0.42066392  0.35408869  0.40010110    -0.73900
Ni247      Ni  0.47534305  0.36384269  0.41822160     1.25400
Ni248      Ni  0.45591989  0.38234615  0.38986147     1.25400
C249        C  0.41734402  0.33625075  0.41661232     0.88400
C250        C  0.51343937  0.41054145  0.39086560     0.88300
C251        C  0.46602472  0.40457486  0.43841344     0.88400
C252        C  0.46578172  0.34132440  0.37025627     0.88500
O253        O  0.53363802  0.61224333  0.57389096    -0.73800
O254        O  0.45734367  0.56677962  0.59204357    -0.73800
O255        O  0.49936299  0.61479064  0.60871821    -0.73900
O256        O  0.49085294  0.56443257  0.55703735    -0.73900
O257        O  0.50300991  0.54143072  0.58321774    -0.73800
O258        O  0.51060153  0.59169488  0.63570852    -0.73800
O259        O  0.46909288  0.54306941  0.61780624    -0.73800
O260        O  0.54468741  0.58949183  0.60143242    -0.73900
Ni261      Ni  0.49496917  0.59045709  0.58196973     1.25400
Ni262      Ni  0.50726438  0.56560699  0.61050460     1.25400
C263        C  0.55167335  0.60842523  0.58504011     0.88400
C264        C  0.45081559  0.54700486  0.60754731     0.88300
C265        C  0.50625126  0.61158856  0.63063079     0.88400
C266        C  0.49497901  0.54439636  0.56163197     0.88500
O267        O  0.76836132  0.73054943  0.58237416    -0.73800
O268        O  0.84588486  0.76438808  0.56757994    -0.73800
O269        O  0.80373444  0.76949208  0.55011386    -0.73900
O270        O  0.81112246  0.72638383  0.60056173    -0.73900
O271        O  0.80104514  0.69241198  0.57352262    -0.73800
O272        O  0.79558800  0.73741556  0.52149195    -0.73800
O273        O  0.83664948  0.73032677  0.54084693    -0.73800
O274        O  0.75984549  0.69870214  0.55340458    -0.73900
Ni275      Ni  0.80752091  0.74881754  0.57614902     1.25400
Ni276      Ni  0.79796444  0.71349754  0.54630550     1.25400
C277        C  0.75137439  0.70932183  0.56984170     0.88400
C278        C  0.85386787  0.75246457  0.55190436     0.88300
C279        C  0.79875320  0.76100735  0.52760577     0.88400
C280        C  0.80762066  0.70257298  0.59559180     0.88500
O281        O  0.86809029  0.56604180  0.74098737    -0.73800
O282        O  0.79333364  0.53817276  0.76320498    -0.73800
O283        O  0.82477287  0.57078645  0.72494974    -0.73900
O284        O  0.83593160  0.53288631  0.77853480    -0.73900
O285        O  0.85006054  0.56975543  0.80296216    -0.73800
O286        O  0.83843413  0.60793860  0.74884583    -0.73800
O287        O  0.80713809  0.57548769  0.78693200    -0.73800
O288        O  0.88114862  0.60291320  0.76518651    -0.73900
Ni289      Ni  0.83006831  0.55069347  0.75101035     1.25400
Ni290      Ni  0.84466209  0.59032557  0.77687220     1.25400
C291        C  0.88682935  0.58922939  0.74954142     0.88400
C292        C  0.78812066  0.55226448  0.77893996     0.88300
C293        C  0.82976281  0.59550495  0.72792293     0.88400
C294        C  0.84464196  0.54487672  0.79950481     0.88500
O295        O  0.10290417  0.69636007  0.75356462    -0.73800
O296        O  0.17998177  0.74611284  0.74058239    -0.73800
O297        O  0.14259523  0.74478582  0.77403569    -0.73900
O298        O  0.14065453  0.69791280  0.72115106    -0.73900
O299        O  0.12859464  0.72039333  0.69426004    -0.73800
O300        O  0.13199984  0.76858352  0.74737567    -0.73800
O301        O  0.16842566  0.76917614  0.71388965    -0.73800
O302        O  0.09254190  0.72055294  0.72715184    -0.73900
Ni303      Ni  0.14194458  0.72052771  0.74837472     1.25400
Ni304      Ni  0.13008279  0.74556193  0.71973770     1.25400
C305        C  0.08506478  0.69991542  0.74169888     0.88400
C306        C  0.18669588  0.76584421  0.72494962     0.88300
C307        C  0.13795970  0.76457422  0.76951376     0.88400
C308        C  0.13348697  0.70081750  0.69925021     0.88500
O309        O  0.43618475  0.07249883  0.93042947    -0.73800
O310        O  0.51213915  0.10755096  0.91011874    -0.73800
O311        O  0.46674282  0.10805346  0.89390232    -0.73900
O312        O  0.48187473  0.07196974  0.94723130    -0.73900
O313        O  0.47302364  0.03689903  0.92196119    -0.73800
O314        O  0.45602028  0.07217206  0.86898099    -0.73800
O315        O  0.50211649  0.07220200  0.88472070    -0.73800
O316        O  0.42717088  0.03665115  0.90607607    -0.73900
Ni317      Ni  0.47460540  0.09128293  0.92135977     1.25400
Ni318      Ni  0.46429768  0.05325909  0.89453220     1.25400
C319        C  0.41924621  0.04883891  0.92137849     0.88400
C320        C  0.51942868  0.09552467  0.89395339     0.88300
C321        C  0.45837068  0.09581646  0.87293998     0.88400
C322        C  0.48011234  0.04855496  0.94336535     0.88500
O323        O  0.20201308  0.95121050  0.92831026    -0.73800
O324        O  0.12516730  0.90356813  0.94439176    -0.73800
O325        O  0.16603787  0.95157242  0.96210930    -0.73900
O326        O  0.16032215  0.90294491  0.90961265    -0.73900
O327        O  0.17113080  0.87909770  0.93602230    -0.73800
O328        O  0.17847299  0.92926948  0.98884546    -0.73800
O329        O  0.13724695  0.88078350  0.97090968    -0.73800
O330        O  0.21254176  0.92693496  0.95445908    -0.73900
Ni331      Ni  0.16302614  0.92816212  0.93509621     1.25400
Ni332      Ni  0.17524201  0.90319946  0.96348760     1.25400
C333        C  0.21993285  0.94693804  0.93917625     0.88400
C334        C  0.11879543  0.88426468  0.96043380     0.88300
C335        C  0.17325983  0.94865269  0.98396479     0.88400
C336        C  0.16422861  0.88270840  0.91412455     0.88500
O337        O  0.62317747  0.53114745  0.93091421    -0.73800
O338        O  0.57901317  0.45482740  0.91162055    -0.73800
O339        O  0.62621639  0.49856629  0.89483908    -0.73900
O340        O  0.57622690  0.48704959  0.94843137    -0.73900
O341        O  0.55182620  0.49864912  0.92362326    -0.73800
O342        O  0.60224499  0.51022335  0.86946353    -0.73800
O343        O  0.55451978  0.46668324  0.88713283    -0.73800
O344        O  0.59879280  0.54195284  0.90518536    -0.73900
Ni345      Ni  0.60201123  0.49247992  0.92239075     1.25400
Ni346      Ni  0.57593555  0.50469610  0.89547064     1.25400
C347        C  0.61841823  0.54906006  0.92061681     0.88400
C348        C  0.55929613  0.44838527  0.89621610     0.88300
C349        C  0.62282226  0.50671146  0.87353031     0.88400
C350        C  0.55582413  0.49089206  0.94501265     0.88500
O351        O  0.73358047  0.76565755  0.91729502    -0.73800
O352        O  0.76951314  0.84308623  0.93243006    -0.73800
O353        O  0.77237739  0.79945344  0.95020672    -0.73900
O354        O  0.73107455  0.80961200  0.89912043    -0.73900
O355        O  0.69794232  0.80142534  0.92668593    -0.73800
O356        O  0.73935120  0.79113091  0.97799893    -0.73800
O357        O  0.73604020  0.83480969  0.95967342    -0.73800
O358        O  0.70106393  0.75794030  0.94540924    -0.73900
Ni359      Ni  0.75280295  0.80473914  0.92373145     1.25400
Ni360      Ni  0.71743170  0.79609800  0.95340278     1.25400
C361        C  0.71172558  0.74904463  0.92938225     0.88400
C362        C  0.75845147  0.85152689  0.94855246     0.88300
C363        C  0.76250418  0.79323152  0.97232646     0.88400
C364        C  0.70782450  0.80737542  0.90450117     0.88500
O365        O  0.68580451  0.09624408  0.75427458    -0.73800
O366        O  0.72933140  0.17323561  0.76993885    -0.73800
O367        O  0.73396499  0.13851588  0.73762536    -0.73900
O368        O  0.68118599  0.13160680  0.78623264    -0.73900
O369        O  0.70306611  0.12193045  0.81569821    -0.73800
O370        O  0.75628533  0.12840523  0.76628875    -0.73800
O371        O  0.75194440  0.16318288  0.79841269    -0.73800
O372        O  0.70733549  0.08645234  0.78400421    -0.73900
Ni373      Ni  0.70676693  0.13516330  0.76097819     1.25400
Ni374      Ni  0.73044230  0.12455911  0.79212875     1.25400
C375        C  0.68926099  0.07868868  0.76679387     0.88400
C376        C  0.74777705  0.18071312  0.78680244     0.88300
C377        C  0.75405421  0.13515586  0.74387232     0.88400
C378        C  0.68360458  0.12624024  0.80897082     0.88500
O379        O  0.57364328  0.86053323  0.75526570    -0.73800
O380        O  0.54874642  0.78511701  0.73714665    -0.73800
O381        O  0.58485561  0.82133974  0.77072428    -0.73900
O382        O  0.53723537  0.82431844  0.72194110    -0.73900
O383        O  0.57042390  0.83805260  0.69321961    -0.73800
O384        O  0.61874849  0.83618185  0.74262617    -0.73800
O385        O  0.58314411  0.79963100  0.70959841    -0.73800
O386        O  0.60623676  0.87442798  0.72594143    -0.73900
Ni387      Ni  0.55989817  0.82226780  0.74728515     1.25400
Ni388      Ni  0.59580168  0.83751535  0.71681854     1.25400
C389        C  0.59393690  0.87984889  0.74330081     0.88400
C390        C  0.56218176  0.78011472  0.72051964     0.88300
C391        C  0.60964795  0.82852227  0.76486661     0.88400
C392        C  0.54608242  0.83211410  0.69969787     0.88500
O393        O  0.94916348  0.20926758  0.59569659    -0.73800
O394        O  0.90647898  0.13273580  0.57778335    -0.73800
O395        O  0.95471512  0.17545189  0.56272114    -0.73900
O396        O  0.90099372  0.16634697  0.61134418    -0.73900
O397        O  0.87878291  0.17694841  0.58296028    -0.73800
O398        O  0.93312890  0.18632203  0.53385239    -0.73800
O399        O  0.88418309  0.14351641  0.54958699    -0.73800
O400        O  0.92747510  0.21960478  0.56651993    -0.73900
Ni401      Ni  0.92856362  0.17055348  0.58793836     1.25400
Ni402      Ni  0.90502914  0.18192255  0.55722874     1.25400
C403        C  0.94560644  0.22701696  0.58361663     0.88400
C404        C  0.88851878  0.12572641  0.56050020     0.88300
C405        C  0.95297141  0.18259197  0.54044331     0.88400
C406        C  0.88117034  0.17025787  0.60533733     0.88500
O407        O  0.06832620  0.44416022  0.58857519    -0.73800
O408        O  0.09938952  0.52154710  0.60238895    -0.73800
O409        O  0.10860711  0.48144373  0.61881094    -0.73900
O410        O  0.05968300  0.48455308  0.57156518    -0.73900
O411        O  0.02797847  0.47386273  0.60124548    -0.73800
O412        O  0.07801995  0.47167191  0.64941250    -0.73800
O413        O  0.06748041  0.51127941  0.63184758    -0.73800
O414        O  0.03812489  0.43443819  0.61952905    -0.73900
Ni415      Ni  0.08507793  0.48326985  0.59427316     1.25400
Ni416      Ni  0.05177504  0.47249712  0.62659494     1.25400
C417        C  0.04814917  0.42662456  0.60195498     0.88400
C418        C  0.08845353  0.52899593  0.61953308     0.88300
C419        C  0.10164076  0.47621446  0.64176857     0.88400
C420        C  0.03571945  0.47941133  0.57834273     0.88500
O421        O  0.89916293  0.52842393  0.43045740    -0.73800
O422        O  0.86722834  0.45259818  0.41023538    -0.73800
O423        O  0.90512153  0.48524656  0.44472294    -0.73900
O424        O  0.86121545  0.49605563  0.39681918    -0.73900
O425        O  0.89318713  0.50614494  0.36743412    -0.73800
O426        O  0.93891306  0.49860045  0.41672140    -0.73800
O427        O  0.90161870  0.46471409  0.38302820    -0.73800
O428        O  0.93073952  0.54006651  0.40040691    -0.73900
Ni429      Ni  0.88196490  0.49002416  0.42159650     1.25400
Ni430      Ni  0.91730270  0.50272697  0.39090451     1.25400
C431        C  0.91974251  0.54672054  0.41801071     0.88400
C432        C  0.87944574  0.44636659  0.39332132     0.88300
C433        C  0.92943901  0.49066795  0.43888602     0.88400
C434        C  0.87016763  0.50351308  0.37456640     0.88500
O435        O  0.02684753  0.76378236  0.41757102    -0.73800
O436        O  0.07224569  0.84007285  0.43546905    -0.73800
O437        O  0.07624073  0.80562367  0.40195415    -0.73900
O438        O  0.02295501  0.79857496  0.45047980    -0.73900
O439        O  0.04322696  0.78597331  0.47922278    -0.73800
O440        O  0.09736519  0.79382079  0.43044375    -0.73800
O441        O  0.09291646  0.82781933  0.46412473    -0.73800
O442        O  0.04791301  0.75233248  0.44646014    -0.73900
Ni443      Ni  0.04890910  0.80246055  0.42527362     1.25400
Ni444      Ni  0.07121643  0.78964520  0.45602500     1.25400
C445        C  0.02945978  0.74549710  0.42976067     0.88400
C446        C  0.08958851  0.84623708  0.45319410     0.88300
C447        C  0.09548269  0.80081531  0.40804264     0.88400
C448        C  0.02403879  0.79074991  0.47267281     0.88500
O449        O  0.39538521  0.09197865  0.24824773    -0.73800
O450        O  0.42553266  0.16943722  0.26071914    -0.73800
O451        O  0.43450698  0.12978686  0.27866118    -0.73900
O452        O  0.38697844  0.13236513  0.22971351    -0.73900
O453        O  0.35464662  0.12302635  0.25846295    -0.73800
O454        O  0.40241604  0.11914026  0.30803007    -0.73800
O455        O  0.39324605  0.15926190  0.28981593    -0.73800
O456        O  0.36332751  0.08250752  0.27732789    -0.73900
Ni457      Ni  0.41165583  0.13116595  0.25326222     1.25400
Ni458      Ni  0.37721516  0.12060715  0.28444826     1.25400
C459        C  0.37464980  0.07449851  0.26112934     0.88400
C460        C  0.41422227  0.17687352  0.27748307     0.88300
C461        C  0.42641357  0.12403351  0.30128841     0.88400
C462        C  0.36343079  0.12888887  0.23586593     0.88500
O463        O  0.28454133  0.85629195  0.25759837    -0.73800
O464        O  0.23846518  0.78012082  0.23945899    -0.73800
O465        O  0.28752269  0.82146605  0.22374859    -0.73900
O466        O  0.23560023  0.81450629  0.27362771    -0.73900
O467        O  0.21422946  0.82688315  0.24589031    -0.73800
O468        O  0.26681243  0.83429810  0.19566015    -0.73800
O469        O  0.21728313  0.79271130  0.21164687    -0.73800
O470        O  0.26333459  0.86829247  0.22929421    -0.73900
Ni471      Ni  0.26229602  0.81767292  0.24961007     1.25400
Ni472      Ni  0.23960214  0.83093335  0.21963776     1.25400
C473        C  0.28144336  0.87474809  0.24626531     0.88400
C474        C  0.22041713  0.77407133  0.22240562     0.88300
C475        C  0.28586849  0.82910067  0.20163568     0.88400
C476        C  0.21642600  0.81960011  0.26809184     0.88500
O477        O  0.22797215  0.20045119  0.09758128    -0.73800
O478        O  0.19591183  0.12427298  0.07865508    -0.73800
O479        O  0.23106465  0.15658596  0.11485298    -0.73900
O480        O  0.19239309  0.16812520  0.06183707    -0.73900
O481        O  0.22760672  0.17898463  0.03593114    -0.73800
O482        O  0.26664464  0.16780749  0.08938364    -0.73800
O483        O  0.23184605  0.13536431  0.05362455    -0.73800
O484        O  0.26271531  0.21104400  0.07115373    -0.73900
Ni485      Ni  0.21054753  0.16191721  0.08914802     1.25400
Ni486      Ni  0.24842524  0.17359426  0.06159749     1.25400
C487        C  0.25042637  0.21823421  0.08702555     0.88400
C488        C  0.20896429  0.11739851  0.06322360     0.88300
C489        C  0.25522920  0.16042500  0.11096443     0.88400
C490        C  0.20387128  0.17612497  0.04044117     0.88500
O491        O  0.35802572  0.43603025  0.09282790    -0.73800
O492        O  0.40885501  0.51123793  0.11114766    -0.73800
O493        O  0.40721427  0.47615932  0.07490665    -0.73900
O494        O  0.35952106  0.47141718  0.12826038    -0.73900
O495        O  0.38050424  0.45658249  0.15404274    -0.73800
O496        O  0.42871743  0.46132698  0.09998917    -0.73800
O497        O  0.43047134  0.49624738  0.13598367    -0.73800
O498        O  0.37944443  0.42196950  0.11891370    -0.73900
Ni499      Ni  0.38271246  0.47426786  0.10083479     1.25400
Ni500      Ni  0.40562538  0.45859709  0.12812544     1.25400
C501        C  0.36008153  0.41664403  0.10357126     0.88400
C502        C  0.42802730  0.51593603  0.12668391     0.88300
C503        C  0.42570121  0.46949864  0.07842029     0.88400
C504        C  0.36165016  0.46266556  0.14971406     0.88500
C505        C  0.28813685  0.29283117  0.10924015     0.16600
C506        C  0.30435717  0.31739654  0.12215490    -0.32400
C507        C  0.31515558  0.34209273  0.10863575     0.21000
C508        C  0.30948560  0.34255329  0.08353662     0.03200
C509        C  0.29338073  0.31794002  0.07055838    -0.22200
C510        C  0.28322004  0.29316010  0.08392566     0.12400
S511        S  0.27435562  0.26061689  0.12197886    -0.05800
C512        C  0.26254853  0.24753967  0.09275822    -0.09300
C513        C  0.26875788  0.26713752  0.07431735    -0.25900
S514        S  0.32484471  0.37484488  0.07059809    -0.03100
C515        C  0.33981167  0.38758961  0.09910360    -0.16500
C516        C  0.33266930  0.36781996  0.11757753    -0.14500
H517        H  0.30893481  0.31723938  0.14174630     0.20800
H518        H  0.28949134  0.31805598  0.05079546     0.16900
H519        H  0.26350690  0.26251766  0.05480727     0.19400
H520        H  0.34026340  0.37207037  0.13653927     0.12700
C521        C  0.33150533  0.14224929  0.17822468     0.16600
C522        C  0.32629592  0.14819900  0.15417205    -0.32400
C523        C  0.30291155  0.15063496  0.15075238     0.21000
C524        C  0.28543100  0.14736688  0.17044980     0.03200
C525        C  0.29079237  0.14163369  0.19468873    -0.22200
C526        C  0.31423737  0.13905596  0.19809670     0.12400
S527        S  0.35883273  0.13850427  0.18577876    -0.05800
C528        C  0.34719571  0.13254827  0.21619741    -0.09300
C529        C  0.32315249  0.13343647  0.22009637    -0.25900
S530        S  0.25772249  0.15042195  0.16204602    -0.03100
C531        C  0.26991188  0.15614975  0.13171873    -0.16500
C532        C  0.29425122  0.15583768  0.12857460    -0.14500
H533        H  0.33984568  0.15066667  0.13872302     0.20800
H534        H  0.27720300  0.13908608  0.21011884     0.16900
H535        H  0.31305281  0.13058025  0.23799832     0.19400
H536        H  0.30483771  0.15881200  0.11091412     0.12700
C537        C  0.35059522  0.99902071  0.24427711     0.16600
C538        C  0.34459790  0.97419228  0.23267428    -0.32400
C539        C  0.32644801  0.94954117  0.24497706     0.21000
C540        C  0.31525419  0.94956077  0.26810461     0.03200
C541        C  0.32119365  0.97438645  0.27967099    -0.22200
C542        C  0.33882887  0.99901149  0.26708294     0.12400
S543        S  0.37147069  0.03113477  0.23209090    -0.05800
C544        C  0.36369039  0.04468171  0.25766800    -0.09300
C545        C  0.34614332  0.02512066  0.27478154    -0.25900
S546        S  0.29302712  0.91745476  0.27957897    -0.03100
C547        C  0.29849529  0.90393475  0.25275311    -0.16500
C548        C  0.31668267  0.92336975  0.23597994    -0.14500
H549        H  0.35325105  0.97408041  0.21459847     0.20800
H550        H  0.31199156  0.97449071  0.29744898     0.16900
H551        H  0.33907468  0.02976780  0.29197305     0.19400
H552        H  0.32174740  0.91858706  0.21781198     0.12700
C553        C  0.15113824  0.80384834  0.36358205     0.16600
C554        C  0.17320758  0.80292082  0.35214876    -0.32400
C555        C  0.17784923  0.80939119  0.32660635     0.21000
C556        C  0.16130497  0.81646849  0.31302986     0.03200
C557        C  0.13927184  0.81738092  0.32444822    -0.22200
C558        C  0.13463301  0.81092585  0.34995065     0.12400
S559        S  0.14186750  0.79664961  0.39434387    -0.05800
C560        C  0.11545375  0.80324336  0.38873199    -0.09300
C561        C  0.11419960  0.81062304  0.36424551    -0.25900
S562        S  0.17038062  0.82371354  0.28229190    -0.03100
C563        C  0.19680356  0.81715492  0.28771496    -0.16500
C564        C  0.19824690  0.80973463  0.31216922    -0.14500
H565        H  0.18618159  0.79740364  0.36268112     0.20800
H566        H  0.12629579  0.82289439  0.31391110     0.16900
H567        H  0.09901133  0.81542231  0.35720215     0.19400
H568        H  0.21349319  0.80493983  0.31905659     0.12700
C569        C  0.97869948  0.67064455  0.41167701     0.16600
C570        C  0.96112707  0.64574181  0.39970951    -0.32400
C571        C  0.95136605  0.62137678  0.41365733     0.21000
C572        C  0.95800921  0.62175018  0.43861460     0.03200
C573        C  0.97560979  0.64660696  0.45052427    -0.22200
C574        C  0.98606624  0.67084831  0.43637166     0.12400
S575        S  0.99352320  0.70253865  0.39799098    -0.05800
C576        C  0.01044811  0.71601933  0.42563986    -0.09300
C577        C  0.00444510  0.69673769  0.44436051    -0.25900
S578        S  0.94487519  0.58991692  0.45202501    -0.03100
C579        C  0.93120816  0.57601369  0.42347087    -0.16500
C580        C  0.93608199  0.59509816  0.40484084    -0.14500
H581        H  0.95587119  0.64530605  0.38022971     0.20800
H582        H  0.98151462  0.64697823  0.46979755     0.16900
H583        H  0.01296632  0.70148780  0.46298960     0.19400
H584        H  0.92970083  0.58993593  0.38561282     0.12700
C585        C  0.98155427  0.47961286  0.53437752     0.16600
C586        C  0.95879297  0.47938087  0.52337638    -0.32400
C587        C  0.95919534  0.48278154  0.49734818     0.21000
C588        C  0.98118671  0.48616149  0.48286497     0.03200
C589        C  0.00382113  0.48618210  0.49383022    -0.22200
C590        C  0.00348934  0.48295361  0.51984087     0.12400
S591        S  0.98546646  0.47639275  0.56569875    -0.05800
C592        C  0.01709967  0.47979198  0.55911349    -0.09300
C593        C  0.02385083  0.48304596  0.53388835    -0.25900
S594        S  0.97804087  0.49071977  0.45171360    -0.03100
C595        C  0.94668837  0.48799208  0.45819942    -0.16500
C596        C  0.93930099  0.48368415  0.48328379    -0.14500
H597        H  0.94164189  0.47692194  0.53462318     0.20800
H598        H  0.02109777  0.48892035  0.48261320     0.16900
H599        H  0.04279956  0.48547254  0.52618451     0.19400
H600        H  0.92051105  0.48172639  0.49090332     0.12700
C601        C  0.98756764  0.30179804  0.60593757     0.16600
C602        C  0.00023992  0.32643525  0.61952362    -0.32400
C603        C  0.01285562  0.35124223  0.60600783     0.21000
C604        C  0.01345676  0.35155893  0.58012626     0.03200
C605        C  0.00038775  0.32695359  0.56655426    -0.22200
C606        C  0.98720697  0.30218907  0.58006375     0.12400
S607        S  0.97102141  0.26947972  0.61874684    -0.05800
C608        C  0.96275837  0.25651668  0.58895164    -0.09300
C609        C  0.97267364  0.27626708  0.57024326    -0.25900
S610        S  0.03026993  0.38379524  0.56723661    -0.03100
C611        C  0.03574133  0.39698167  0.59700184    -0.16500
C612        C  0.02531347  0.37728911  0.61578510    -0.14500
H613        H  0.00005018  0.32628830  0.63973470     0.20800
H614        H  0.00025365  0.32710939  0.54634492     0.16900
H615        H  0.96945791  0.27182788  0.55047435     0.19400
H616        H  0.02661137  0.38184001  0.63554330     0.12700
C617        C  0.81516178  0.15118012  0.70064356     0.16600
C618        C  0.84051017  0.15762317  0.68993392    -0.32400
C619        C  0.84314023  0.16072470  0.66388258     0.21000
C620        C  0.82170902  0.15799253  0.64912472     0.03200
C621        C  0.79647273  0.15181289  0.65985287    -0.22200
C622        C  0.79373059  0.14836695  0.68584674     0.12400
S623        S  0.80742640  0.14591972  0.73183248    -0.05800
C624        C  0.77498379  0.13992066  0.72479476    -0.09300
C625        C  0.77072386  0.14200272  0.69958849    -0.25900
S626        S  0.82886777  0.16190830  0.61782743    -0.03100
C627        C  0.86092428  0.16677474  0.62466483    -0.16500
C628        C  0.86568350  0.16578883  0.64994408    -0.14500
H629        H  0.85731004  0.15972586  0.70134838     0.20800
H630        H  0.77958609  0.14944941  0.64841329     0.16900
H631        H  0.75175400  0.13915704  0.69171198     0.19400
H632        H  0.88454496  0.16822778  0.65769954     0.12700
C633        C  0.64801313  0.00421936  0.74334664     0.16600
C634        C  0.63582710  0.98004185  0.72912475    -0.32400
C635        C  0.62412024  0.95482983  0.74192556     0.21000
C636        C  0.62372100  0.95360533  0.76778358     0.03200
C637        C  0.63618041  0.97782400  0.78202461    -0.22200
C638        C  0.64867883  0.00308643  0.76917456     0.12400
S639        S  0.66389117  0.03684109  0.73128674    -0.05800
C640        C  0.67238871  0.04911579  0.76127606    -0.09300
C641        C  0.66299806  0.02883548  0.77955460    -0.25900
S642        S  0.60855744  0.92085540  0.77965258    -0.03100
C643        C  0.60377586  0.90886981  0.74944806    -0.16500
C644        C  0.61294999  0.92924864  0.73133061    -0.14500
H645        H  0.63595591  0.98085187  0.70892969     0.20800
H646        H  0.63662140  0.97701454  0.80219799     0.16900
H647        H  0.66647260  0.03276546  0.79936973     0.19400
H648        H  0.61203161  0.92552637  0.71142645     0.12700
C649        C  0.66067981  0.81808207  0.86025986     0.16600
C650        C  0.63947336  0.82053231  0.84927898    -0.32400
C651        C  0.64031670  0.82390313  0.82335861     0.21000
C652        C  0.66153351  0.82528401  0.80892245     0.03200
C653        C  0.68294211  0.82308459  0.81995574    -0.22200
C654        C  0.68187487  0.81928618  0.84590560     0.12400
S655        S  0.66264475  0.81267870  0.89129553    -0.05800
C656        C  0.69229056  0.81187373  0.88491776    -0.09300
C657        C  0.70018943  0.81582688  0.86001187    -0.25900
S658        S  0.65822461  0.82878992  0.77763915    -0.03100
C659        C  0.62770741  0.82784577  0.78420546    -0.16500
C660        C  0.62089674  0.82537474  0.80929677    -0.14500
H661        H  0.62274652  0.81932067  0.86039654     0.20800
H662        H  0.69941680  0.82381835  0.80878759     0.16900
H663        H  0.71817826  0.81585299  0.85259649     0.19400
H664        H  0.60246888  0.82432997  0.81684385     0.12700
C665        C  0.65346331  0.62470965  0.93965030     0.16600
C666        C  0.66087783  0.64997272  0.95106579    -0.32400
C667        C  0.67544312  0.67395392  0.93664402     0.21000
C668        C  0.68273760  0.67298078  0.91206219     0.03200
C669        C  0.67493216  0.64769132  0.90051662    -0.22200
C670        C  0.66004963  0.62368465  0.91484162     0.12400
S671        S  0.63496590  0.59314843  0.95366238    -0.05800
C672        C  0.63576111  0.57851469  0.92567720    -0.09300
C673        C  0.64969210  0.59719106  0.90668548    -0.25900
S674        S  0.70150142  0.70456138  0.89816829    -0.03100
C675        C  0.69892494  0.71913791  0.92561410    -0.16500
C676        C  0.68435152  0.70035383  0.94438723    -0.14500
H677        H  0.65538675  0.65089631  0.97030081     0.20800
H678        H  0.68014554  0.64674900  0.88119443     0.16900
H679        H  0.65133448  0.59156998  0.88766794     0.19400
H680        H  0.68100462  0.70580820  0.96295210     0.12700
C681        C  0.51344075  0.47698958  0.00574259     0.16600
C682        C  0.50321206  0.47131256  0.03034588    -0.32400
C683        C  0.47916778  0.47230825  0.03565826     0.21000
C684        C  0.46588458  0.47851979  0.01718524     0.03200
C685        C  0.47599037  0.48399034  0.99258067    -0.22200
C686        C  0.50011242  0.48320349  0.98731969     0.12400
S687        S  0.54259359  0.47744453  0.99563093    -0.05800
C688        C  0.53692688  0.48623252  0.96623607    -0.09300
C689        C  0.51345168  0.48851300  0.96462921    -0.25900
S690        S  0.43751869  0.47947043  0.02737982    -0.03100
C691        C  0.44347092  0.47152947  0.05699665    -0.16500
C692        C  0.46632520  0.46812634  0.05855990    -0.14500
H693        H  0.51371064  0.46662193  0.04476855     0.20800
H694        H  0.46566160  0.48898046  0.97821751     0.16900
H695        H  0.50655759  0.49387344  0.94779761     0.19400
H696        H  0.47342898  0.46333252  0.07557248     0.12700
C697        C  0.19369569  0.00733295  0.03059583     0.16600
C698        C  0.20887728  0.03080486  0.04533273    -0.32400
C699        C  0.19929287  0.04961202  0.04738311     0.21000
C700        C  0.17507196  0.04475968  0.03615955     0.03200
C701        C  0.15984002  0.02125084  0.02157333    -0.22200
C702        C  0.17000132  0.00303857  0.01870937     0.12400
S703        S  0.20350217  0.98368279  0.02323252    -0.05800
C704        C  0.17606973  0.96868490  0.00313061    -0.09300
C705        C  0.15985929  0.98094617  0.00295764    -0.25900
S706        S  0.16756644  0.07063536  0.03993659    -0.03100
C707        C  0.19777922  0.08850761  0.05611628    -0.16500
C708        C  0.21255424  0.07488035  0.05868344    -0.14500
H709        H  0.22799589  0.03488512  0.05384794     0.20800
H710        H  0.14153939  0.01794931  0.01192033     0.16900
H711        H  0.14242980  0.97494212  0.99079444     0.19400
H712        H  0.23238752  0.08344346  0.06763400     0.12700
C713        C  0.62941087  0.11406584  0.85897463     0.16600
C714        C  0.60927448  0.10291667  0.87776191    -0.32400
C715        C  0.58845160  0.10989140  0.87752223     0.21000
C716        C  0.58830122  0.12808010  0.86002720     0.03200
C717        C  0.60869015  0.13960204  0.84155530    -0.22200
C718        C  0.62878229  0.13168873  0.84115305     0.12400
S719        S  0.65453956  0.10566721  0.85412548    -0.05800
C720        C  0.66344721  0.12519767  0.82726776    -0.09300
C721        C  0.64824604  0.13813833  0.82298368    -0.25900
S722        S  0.56001385  0.13199302  0.86142406    -0.03100
C723        C  0.54800078  0.10844658  0.88542896    -0.16500
C724        C  0.56525669  0.09850091  0.89214401    -0.14500
H725        H  0.60900193  0.08829426  0.89114688     0.20800
H726        H  0.60803279  0.15293450  0.82726351     0.16900
H727        H  0.65064452  0.15081453  0.80684788     0.19400
H728        H  0.56029053  0.08256423  0.90596454     0.12700
C729        C  0.34416025  0.00156536  0.93914437     0.16600
C730        C  0.31901063  0.97911754  0.94640503    -0.32400
C731        C  0.29504529  0.97923844  0.93953520     0.21000
C732        C  0.29583781  0.00076895  0.92610839     0.03200
C733        C  0.32115239  0.02357320  0.91911853    -0.22200
C734        C  0.34527720  0.02343134  0.92596604     0.12400
S735        S  0.37525770  0.00392696  0.94402953    -0.05800
C736        C  0.39015390  0.03491225  0.92853200    -0.09300
C737        C  0.37184296  0.04289130  0.91998776    -0.25900
S738        S  0.26398272  0.99624751  0.91931480    -0.03100
C739        C  0.24968846  0.96512928  0.93488389    -0.16500
C740        C  0.26882831  0.95893597  0.94463109    -0.14500
H741        H  0.31813294  0.96197832  0.95657842     0.20800
H742        H  0.32200496  0.04043953  0.90850480     0.16900
H743        H  0.37755606  0.06115764  0.90891451     0.19400
H744        H  0.26381898  0.94044362  0.95507923     0.12700
C745        C  0.10867265  0.64062255  0.65360048     0.16600
C746        C  0.09203181  0.61709229  0.63936849    -0.32400
C747        C  0.10072783  0.59769321  0.63618839     0.21000
C748        C  0.12542058  0.60202885  0.64590953     0.03200
C749        C  0.14199845  0.62549461  0.66017775    -0.22200
C750        C  0.13279281  0.64435507  0.66414702     0.12400
S751        S  0.10047931  0.66524498  0.66169123    -0.05800
C752        C  0.12924120  0.68006028  0.68026679    -0.09300
C753        C  0.14455038  0.66681378  0.67959979    -0.25900
S754        S  0.13186802  0.57563033  0.64079359    -0.03100
C755        C  0.10060873  0.55819727  0.62612215    -0.16500
C756        C  0.08622235  0.57235722  0.62504529    -0.14500
H757        H  0.07262158  0.61352238  0.63196414     0.20800
H758        H  0.16070896  0.62836680  0.66866231     0.16900
H759        H  0.16258257  0.67252740  0.69083398     0.19400
H760        H  0.06584498  0.56412820  0.61731316     0.12700
C761        C  0.14225145  0.81856007  0.81695158     0.16600
C762        C  0.14297327  0.84105651  0.82928118    -0.32400
C763        C  0.15015888  0.84478857  0.85466872     0.21000
C764        C  0.15615393  0.82683078  0.86728784     0.03200
C765        C  0.15526455  0.80426564  0.85500418    -0.22200
C766        C  0.14828149  0.80064271  0.82959584     0.12400
S767        S  0.13478736  0.81078881  0.78602451    -0.05800
C768        C  0.13992302  0.78311395  0.79012645    -0.09300
C769        C  0.14693083  0.78029430  0.81435347    -0.25900
S770        S  0.16470732  0.83510207  0.89795323    -0.03100
C771        C  0.16035711  0.86321657  0.89378693    -0.16500
C772        C  0.15248232  0.86565913  0.86977808    -0.14500
H773        H  0.13840938  0.85518975  0.81945973     0.20800
H774        H  0.16006529  0.79027237  0.86477348     0.16900
H775        H  0.15115792  0.76434674  0.82045962     0.19400
H776        H  0.14871573  0.88191036  0.86366344     0.12700
C777        C  0.71777769  0.51663074  0.81130256     0.16600
C778        C  0.69490548  0.49947945  0.82614488    -0.32400
C779        C  0.67766431  0.50961288  0.83381917     0.21000
C780        C  0.68238119  0.53531954  0.82634220     0.03200
C781        C  0.70544399  0.55261649  0.81168793    -0.22200
C782        C  0.72323232  0.54284017  0.80473828     0.12400
S783        S  0.74193667  0.50865574  0.80125808    -0.05800
C784        C  0.76012557  0.54130710  0.78890005    -0.09300
C785        C  0.74775920  0.55725721  0.79215316    -0.25900
S786        S  0.65924535  0.54394274  0.83810731    -0.03100
C787        C  0.64372302  0.51305060  0.85399258    -0.16500
C788        C  0.65573537  0.49691498  0.84991270    -0.14500
H789        H  0.69115255  0.47939988  0.83206440     0.20800
H790        H  0.70977068  0.57310273  0.80655632     0.16900
H791        H  0.75656988  0.57845603  0.78611116     0.19400
H792        H  0.64926870  0.47729157  0.85891017     0.12700
C793        C  0.96127016  0.63534279  0.73045292     0.16600
C794        C  0.98610957  0.65851529  0.72366093    -0.32400
C795        C  0.01026916  0.66123038  0.73380618     0.21000
C796        C  0.01000053  0.64147535  0.74955544     0.03200
C797        C  0.98507354  0.61790068  0.75601296    -0.22200
C798        C  0.96070652  0.61547014  0.74629148     0.12400
S799        S  0.92973365  0.63049871  0.72278462    -0.05800
C800        C  0.91541415  0.60140717  0.74110766    -0.09300
C801        C  0.93427550  0.59573687  0.75236934    -0.25900
S802        S  0.04184989  0.64941125  0.76031680    -0.03100
C803        C  0.05542373  0.67977419  0.74360393    -0.16500
C804        C  0.03609543  0.68308633  0.73034705    -0.14500
H805        H  0.98650207  0.67434202  0.71175817     0.20800
H806        H  0.98460600  0.60264792  0.76873352     0.16900
H807        H  0.92900107  0.57937739  0.76579809     0.19400
H808        H  0.04070180  0.70065679  0.71864641     0.12700
C809        C  0.96245694  0.76683140  0.51675687     0.16600
C810        C  0.93861541  0.75090583  0.53090102    -0.32400
C811        C  0.92103050  0.76158423  0.53512005     0.21000
C812        C  0.92735291  0.78745198  0.52652914     0.03200
C813        C  0.95120747  0.80338241  0.51233046    -0.22200
C814        C  0.96825404  0.79221392  0.50725854     0.12400
S815        S  0.98523520  0.75652207  0.50789447    -0.05800
C816        C  0.00214903  0.78620773  0.49044418    -0.09300
C817        C  0.99088017  0.80329434  0.49189043    -0.25900
S818        S  0.90257725  0.79602770  0.53264773    -0.03100
C819        C  0.88313388  0.76401117  0.54599051    -0.16500
C820        C  0.89559391  0.74798468  0.54611587    -0.14500
H821        H  0.93343481  0.73059241  0.53747135     0.20800
H822        H  0.95569028  0.82310128  0.50470600     0.16900
H823        H  0.99838228  0.82238919  0.48163179     0.19400
H824        H  0.88594874  0.72696420  0.55285308     0.12700
C825        C  0.81481026  0.62282890  0.66786526     0.16600
C826        C  0.80701313  0.62636755  0.64391797    -0.32400
C827        C  0.81145685  0.65257831  0.63759148     0.21000
C828        C  0.82314666  0.67419518  0.65443542     0.03200
C829        C  0.83102911  0.67069787  0.67827821    -0.22200
C830        C  0.82653181  0.64453916  0.68459811     0.12400
S831        S  0.81109956  0.59270783  0.67917236    -0.05800
C832        C  0.82543010  0.60955184  0.70673513    -0.09300
C833        C  0.83265058  0.63706069  0.70696335    -0.25900
S834        S  0.82646883  0.70421746  0.64364842    -0.03100
C835        C  0.81195476  0.68766053  0.61603516    -0.16500
C836        C  0.80508563  0.66022793  0.61533137    -0.14500
H837        H  0.79781576  0.60942859  0.63084988     0.20800
H838        H  0.84013601  0.68761282  0.69138280     0.16900
H839        H  0.84197286  0.65086056  0.72258192     0.19400
H840        H  0.79570856  0.64662735  0.59960339     0.12700
C841        C  0.62681961  0.64828182  0.56324920     0.16600
C842        C  0.65185779  0.65894750  0.55027647    -0.32400
C843        C  0.67619284  0.67292150  0.56415422     0.21000
C844        C  0.67568178  0.67665418  0.58969497     0.03200
C845        C  0.65069456  0.66558403  0.60269439    -0.22200
C846        C  0.62640985  0.65115235  0.58893167     0.12400
S847        S  0.59490314  0.63030026  0.55007281    -0.05800
C848        C  0.58106905  0.62606014  0.57958710    -0.09300
C849        C  0.60024551  0.63812409  0.59840504    -0.25900
S850        S  0.70741802  0.69482992  0.60304080    -0.03100
C851        C  0.72157284  0.69670265  0.57405729    -0.16500
C852        C  0.70250826  0.68408980  0.55513924    -0.14500
H853        H  0.65235939  0.65627031  0.53030047     0.20800
H854        H  0.65019652  0.66792520  0.62272415     0.16900
H855        H  0.59523772  0.63712333  0.61806806     0.19400
H856        H  0.70768237  0.68319418  0.53579257     0.12700
C857        C  0.55164345  0.71076867  0.69781430     0.16600
C858        C  0.55533738  0.68953233  0.68819630    -0.32400
C859        C  0.53326176  0.66808024  0.67551637     0.21000
C860        C  0.50852928  0.66771799  0.67270641     0.03200
C861        C  0.50447245  0.68837761  0.68320435    -0.22200
C862        C  0.52662457  0.70994803  0.69571473     0.12400
S863        S  0.57707629  0.74044054  0.71054206    -0.05800
C864        C  0.55367856  0.75166043  0.71344227    -0.09300
C865        C  0.52752530  0.73319348  0.70514261    -0.25900
S866        S  0.48570984  0.64221387  0.65367308    -0.03100
C867        C  0.50953078  0.63166282  0.64981779    -0.16500
C868        C  0.53374940  0.64704575  0.66278362    -0.25300
H869        H  0.57500222  0.69040811  0.68943875     0.20800
H870        H  0.48535157  0.68837318  0.68063434     0.16900
H871        H  0.51066711  0.73737390  0.70445805     0.19400
H872        H  0.55147943  0.64428015  0.66140293     0.12700
C873        C  0.47846100  0.44924247  0.49613335     0.16600
C874        C  0.48683300  0.46208249  0.51936363    -0.32400
C875        C  0.48556301  0.48611015  0.52325881     0.21000
C876        C  0.47610515  0.49675432  0.50490692     0.03200
C877        C  0.46748091  0.48374829  0.48168066    -0.22200
C878        C  0.46901032  0.45979993  0.47768695     0.12400
S879        S  0.47992557  0.42080632  0.48757289    -0.05800
C880        C  0.46793015  0.42312833  0.45865610    -0.09300
C881        C  0.46274228  0.44474807  0.45604509    -0.25900
S882        S  0.47645550  0.52628241  0.51327117    -0.03100
C883        C  0.48957340  0.52428153  0.54174625    -0.16500
C884        C  0.49328952  0.50178005  0.54447195    -0.14500
H885        H  0.49441827  0.45392043  0.53364855     0.20800
H886        H  0.46028896  0.49214196  0.46726453     0.16900
H887        H  0.45567087  0.44968575  0.43908611     0.19400
H888        H  0.50112184  0.49708658  0.56107832     0.12700
C889        C  0.46685745  0.28493524  0.33113437     0.16600
C890        C  0.46983665  0.26274958  0.32315458    -0.32400
C891        C  0.45085866  0.24462581  0.30581520     0.21000
C892        C  0.43009453  0.24866191  0.29651650     0.03200
C893        C  0.42773669  0.27142414  0.30383391    -0.22200
C894        C  0.44642751  0.28929597  0.32151177     0.12400
S895        S  0.48512948  0.30663082  0.35473287    -0.05800
C896        C  0.46502203  0.32173217  0.35166906    -0.09300
C897        C  0.44559339  0.31077492  0.33295309    -0.25900
S898        S  0.40680994  0.22232786  0.27848142    -0.03100
C899        C  0.42543579  0.20596863  0.28332486    -0.16500
C900        C  0.44847712  0.22024653  0.29800056    -0.14500
H901        H  0.48530280  0.25891681  0.33115614     0.20800
H902        H  0.41111245  0.27420740  0.29712103     0.16900
H903        H  0.43038875  0.31682104  0.32920421     0.19400
H904        H  0.46147593  0.21222206  0.30419735     0.12700
C905        C  0.01471696  0.20706398  0.49673486     0.16600
C906        C  0.03855964  0.22305934  0.48260669    -0.32400
C907        C  0.05638573  0.21260649  0.47872243     0.21000
C908        C  0.05029281  0.18693238  0.48770960     0.03200
C909        C  0.02660018  0.17106606  0.50201889    -0.22200
C910        C  0.00927565  0.18194269  0.50662723     0.12400
S911        S  0.99136896  0.21685282  0.50496641    -0.05800
C912        C  0.97479603  0.18731738  0.52264814    -0.09300
C913        C  0.98653602  0.17066539  0.52174093    -0.25900
S914        S  0.07467307  0.17803984  0.48121266    -0.03100
C915        C  0.09370511  0.20965520  0.46712404    -0.16500
C916        C  0.08151993  0.22591773  0.46713888    -0.14500
H917        H  0.04341722  0.24313175  0.47559534     0.20800
H918        H  0.02227587  0.15146567  0.50983767     0.16900
H919        H  0.97929180  0.15175428  0.53225261     0.19400
H920        H  0.09084747  0.24657959  0.45955576     0.12700
C921        C  0.34366059  0.29497733  0.44025002     0.16600
C922        C  0.31923691  0.28718391  0.45348867    -0.32400
C923        C  0.29480938  0.27665716  0.43974349     0.21000
C924        C  0.29445049  0.27288420  0.41413471     0.03200
C925        C  0.31878667  0.28047690  0.40096205    -0.22200
C926        C  0.34331196  0.29200975  0.41454113     0.12400
S927        S  0.37594503  0.31167832  0.45282913    -0.05800
C928        C  0.38896382  0.31560718  0.42301270    -0.09300
C929        C  0.36918882  0.30374883  0.40462456    -0.25900
S930        S  0.26280600  0.26014191  0.40080640    -0.03100
C931        C  0.25013639  0.26092283  0.42987528    -0.16500
C932        C  0.26940524  0.27004530  0.44884411    -0.14500
H933        H  0.31943331  0.29037406  0.47343864     0.20800
H934        H  0.31876279  0.27856720  0.38084504     0.16900
H935        H  0.37359054  0.30551963  0.38478533     0.19400
H936        H  0.26500537  0.27177648  0.46825372     0.12700
C937        C  0.30100788  0.43729959  0.19529819     0.16600
C938        C  0.27697548  0.42039037  0.20893735    -0.32400
C939        C  0.25840896  0.42995795  0.21298812     0.21000
C940        C  0.26403789  0.45575696  0.20482804     0.03200
C941        C  0.28808164  0.47267470  0.19117925    -0.22200
C942        C  0.30607547  0.46258346  0.18618431     0.12400
S943        S  0.32463360  0.42816135  0.18612231    -0.05800
C944        C  0.34086873  0.45813078  0.16891803    -0.09300
C945        C  0.32879752  0.47451317  0.17088895    -0.25900
S946        S  0.23837087  0.46310161  0.21089273    -0.03100
C947        C  0.21943105  0.43064999  0.22358845    -0.16500
C948        C  0.23272554  0.41537254  0.22352287    -0.14500
H949        H  0.27235616  0.40011889  0.21514956     0.20800
H950        H  0.29199300  0.49232307  0.18382617     0.16900
H951        H  0.33549861  0.49348711  0.16062828     0.19400
H952        H  0.22366003  0.39432788  0.23009043     0.12700
C953        C  0.15364652  0.29140125  0.34868456     0.16600
C954        C  0.14723842  0.29576859  0.32444355    -0.32400
C955        C  0.14995269  0.32152946  0.31903881     0.21000
C956        C  0.15861452  0.34198775  0.33698378     0.03200
C957        C  0.16508320  0.33764349  0.36117614    -0.22200
C958        C  0.16240482  0.31192406  0.36657201     0.12400
S959        S  0.15155836  0.26158472  0.35903992    -0.05800
C960        C  0.16268652  0.27695239  0.38777721    -0.09300
C961        C  0.16765019  0.30377473  0.38903423    -0.25900
S962        S  0.16036438  0.37169983  0.32687221    -0.03100
C963        C  0.14935558  0.35650251  0.29808657    -0.16500
C964        C  0.14466549  0.32976516  0.29661586    -0.14500
H965        H  0.14039859  0.27978541  0.31043747     0.20800
H966        H  0.17186020  0.35360552  0.37519999     0.16900
H967        H  0.17462540  0.31659937  0.40552076     0.19400
H968        H  0.13766584  0.31701551  0.28008636     0.12700
C969        C  0.96362217  0.30817036  0.24484065     0.16600
C970        C  0.98902705  0.31370429  0.23504786    -0.32400
C971        C  0.01280666  0.33453417  0.24630745     0.21000
C972        C  0.01156610  0.34967646  0.26621715     0.03200
C973        C  0.98603475  0.34411715  0.27610312    -0.22200
C974        C  0.96213403  0.32286588  0.26505220     0.12400
S975        S  0.93256475  0.28267578  0.23445667    -0.05800
C976        C  0.91727464  0.29162047  0.25765354    -0.09300
C977        C  0.93543128  0.31327296  0.27261430    -0.25900
S978        S  0.04318672  0.37420133  0.27695114    -0.03100
C979        C  0.05805252  0.36344000  0.25462198    -0.16500
C980        C  0.03923342  0.34221536  0.23970522    -0.14500
H981        H  0.99022350  0.30193525  0.21953671     0.20800
H982        H  0.98485240  0.35554205  0.29190568     0.16900
H983        H  0.92943075  0.32097317  0.28857794     0.19400
H984        H  0.04461825  0.33288726  0.22460882     0.12700
C985        C  0.86487042  0.34002677  0.35143356     0.16600
C986        C  0.87998051  0.36228179  0.36744103    -0.32400
C987        C  0.87019858  0.38061780  0.37163029     0.21000
C988        C  0.84607220  0.37666628  0.36088753     0.03200
C989        C  0.83113811  0.35459066  0.34461489    -0.22200
C990        C  0.84130767  0.33663288  0.33992425     0.12400
S991        S  0.87390165  0.31610893  0.34320799    -0.05800
C992        C  0.84615774  0.30192002  0.32346186    -0.09300
C993        C  0.83066944  0.31496779  0.32357474    -0.25900
S994        S  0.83814212  0.40171631  0.36783505    -0.03100
C995        C  0.86797488  0.41793231  0.38481525    -0.16500
C996        C  0.88301939  0.40447073  0.38514633    -0.14500
H997        H  0.89887513  0.36551914  0.37581364     0.20800
H998        H  0.81278010  0.35191756  0.33553793     0.16900
H999        H  0.81289249  0.30919748  0.31195640     0.19400
H1000       H  0.90282211  0.41231960  0.39400504     0.12700
C1001       C  0.81390416  0.14099423  0.14744103     0.16600
C1002       C  0.81320121  0.16320080  0.15872005    -0.32400
C1003       C  0.82082652  0.16861521  0.18385568     0.21000
C1004       C  0.82876144  0.15262199  0.19731684     0.03200
C1005       C  0.82945636  0.13031420  0.18601335    -0.22200
C1006       C  0.82185580  0.12492205  0.16076679     0.12400
S1007       S  0.80555749  0.13134086  0.11706821    -0.05800
C1008       C  0.81283323  0.10527737  0.12216378    -0.09300
C1009       C  0.82126170  0.10432681  0.14633607    -0.25900
S1010       S  0.83722730  0.16283046  0.22768595    -0.03100
C1011       C  0.83006083  0.18895571  0.22206611    -0.16500
C1012       C  0.82154815  0.18941116  0.19789400    -0.14500
H1013       H  0.80703004  0.17578834  0.14831287     0.20800
H1014       H  0.83568283  0.11776586  0.19640359     0.16900
H1015       H  0.82674042  0.08943668  0.15296718     0.19400
H1016       H  0.81614127  0.20423232  0.19090673     0.12700
C1017       C  0.79594678  0.92321386  0.97697541     0.16600
C1018       C  0.81134322  0.94528467  0.99306887    -0.32400
C1019       C  0.80246695  0.96440596  0.99685831     0.21000
C1020       C  0.78002764  0.96246599  0.98430112     0.03200
C1021       C  0.76471354  0.94047192  0.96804347    -0.22200
C1022       C  0.77285053  0.92063029  0.96515185     0.12400
S1023       S  0.80139550  0.89610531  0.97240825    -0.05800
C1024       C  0.77174312  0.88071100  0.95517639    -0.09300
C1025       C  0.75873687  0.89609445  0.95273562    -0.25900
S1026       S  0.77174334  0.98695546  0.99258689    -0.03100
C1027       C  0.79798230  0.99905439  0.01398788    -0.16500
C1028       C  0.81275124  0.98527443  0.01399255    -0.14500
H1029       H  0.82863124  0.94669214  0.00321304     0.20800
H1030       H  0.74645078  0.93816679  0.95906557     0.16900
H1031       H  0.73924871  0.88902971  0.94349788     0.19400
H1032       H  0.82938873  0.98956001  0.02665320     0.12700
C1033       C  0.38555816  0.87496745  0.13461439     0.16600
C1034       C  0.36316129  0.87753140  0.14274902    -0.32400
C1035       C  0.34262524  0.85575693  0.15669142     0.21000
C1036       C  0.34421889  0.83235535  0.16206732     0.03200
C1037       C  0.36600324  0.82928684  0.15300784    -0.22200
C1038       C  0.38667001  0.85117173  0.13929889     0.12400
S1039       S  0.41442656  0.90066565  0.12078971    -0.05800
C1040       C  0.42783559  0.87892620  0.12092314    -0.09300
C1041       C  0.41073842  0.85314655  0.13101514    -0.25900
S1042       S  0.31956845  0.81012420  0.18228010    -0.03100
C1043       C  0.30678094  0.83239706  0.18327253    -0.16500
C1044       C  0.32075285  0.85560029  0.16840750    -0.14500
H1045       H  0.36250068  0.89627944  0.13950325     0.20800
H1046       H  0.36752618  0.81125833  0.15757971     0.16900
H1047       H  0.41639768  0.83744253  0.13367486     0.19400
H1048       H  0.31642409  0.87240112  0.16775417     0.12700
C1049       C  0.49692548  0.01982983  0.00208941     0.16600
C1050       C  0.50323433  0.01457126  0.02614864    -0.32400
C1051       C  0.50230282  0.98929146  0.03026237     0.21000
C1052       C  0.49563578  0.97034414  0.01114719     0.03200
C1053       C  0.48958778  0.97568604  0.98715507    -0.22200
C1054       C  0.49025925  0.00072764  0.98312934     0.12400
S1055       S  0.49587961  0.04870004  0.99330508    -0.05800
C1056       C  0.48620347  0.03472817  0.96384751    -0.09300
C1057       C  0.48417988  0.00914753  0.96121630    -0.25900
S1058       S  0.49469714  0.94061383  0.01975237    -0.03100
C1059       C  0.50321216  0.95346563  0.04962920    -0.16500
C1060       C  0.50681016  0.97975064  0.05247893    -0.14500
H1061       H  0.50823153  0.02933145  0.04106904     0.20800
H1062       H  0.48415870  0.96073639  0.97233058     0.16900
H1063       H  0.47824133  0.99714249  0.94421129     0.19400
H1064       H  0.51188041  0.99099691  0.06989250     0.12700
C1065       C  0.63159796  0.95565121  0.07232369     0.16600
C1066       C  0.65643621  0.97023942  0.05926951    -0.32400
C1067       C  0.68079300  0.98026594  0.07291742     0.21000
C1068       C  0.68060590  0.97531291  0.09829686     0.03200
C1069       C  0.65573431  0.96088786  0.11140962    -0.22200
C1070       C  0.63134278  0.95159568  0.09788960     0.12400
S1071       S  0.59981395  0.94305102  0.05938455    -0.05800
C1072       C  0.58616166  0.93310190  0.08884817    -0.09300
C1073       C  0.60525574  0.93890808  0.10751833    -0.25900
S1074       S  0.71255174  0.98936490  0.11134238    -0.03100
C1075       C  0.72609821  0.00287408  0.08246631    -0.16500
C1076       C  0.70681546  0.99625756  0.06381048    -0.14500
H1077       H  0.65677071  0.97419738  0.03944843     0.20800
H1078       H  0.65540885  0.95763653  0.13136141     0.16900
H1079       H  0.60029036  0.93462032  0.12715766     0.19400
H1080       H  0.71162939  0.00310049  0.04460109     0.12700
C1081       C  0.84847710  0.78378628  0.03165493     0.16600
C1082       C  0.84232257  0.80127319  0.01785766    -0.32400
C1083       C  0.81501452  0.79088512  0.01036903     0.21000
C1084       C  0.79454574  0.76463207  0.01706059     0.03200
C1085       C  0.80072741  0.74710872  0.03066862    -0.22200
C1086       C  0.82815472  0.75715501  0.03740625     0.12400
S1087       S  0.88066447  0.79166639  0.04096794    -0.05800
C1088       C  0.86660034  0.75843507  0.05181318    -0.09300
C1089       C  0.83850795  0.74244363  0.04875387    -0.25900
S1090       S  0.76284088  0.75555161  0.00565413    -0.03100
C1091       C  0.77751764  0.78703952  0.99101408    -0.16500
C1092       C  0.80536760  0.80375155  0.99509736    -0.14500
H1093       H  0.85825951  0.82171661  0.01247976     0.20800
H1094       H  0.78500544  0.72623581  0.03508951     0.16900
H1095       H  0.82648440  0.72088249  0.05378706     0.19400
H1096       H  0.81797652  0.82381346  0.98666680     0.12700
C1097       C  0.04344358  0.84245207  0.98150763     0.16600
C1098       C  0.01674220  0.83327267  0.99058394    -0.32400
C1099       C  0.00239501  0.80659697  0.00081573     0.21000
C1100       C  0.01384152  0.78962401  0.00134364     0.03200
C1101       C  0.04045565  0.79883927  0.99248154    -0.22200
C1102       C  0.05497978  0.82561727  0.98290525     0.12400
S1103       S  0.06512100  0.87456761  0.96951862    -0.05800
C1104       C  0.09003309  0.86522615  0.96725187    -0.09300
C1105       C  0.08162541  0.83859632  0.97495358    -0.25900
S1106       S  0.99388335  0.75848481  0.01530354    -0.03100
C1107       C  0.97002308  0.76849041  0.02102206    -0.16500
C1108       C  0.97721327  0.79460503  0.01244174    -0.14500
H1109       H  0.00785712  0.84656121  0.99032108     0.20800
H1110       H  0.04975759  0.78595031  0.99366331     0.16900
H1111       H  0.09462029  0.82937867  0.97522527     0.19400
H1112       H  0.96524020  0.80466415  0.01555322     0.12700
C1113       C  0.11955581  0.50727315  0.14564763     0.16600
C1114       C  0.13737808  0.50204029  0.15980417    -0.32400
C1115       C  0.12844851  0.47466157  0.16651637     0.21000
C1116       C  0.10339283  0.45323680  0.15860002     0.03200
C1117       C  0.08551418  0.45847291  0.14448321    -0.22200
C1118       C  0.09396187  0.48599824  0.13868009     0.12400
S1119       S  0.12553603  0.53933782  0.13773582    -0.05800
C1120       C  0.09282091  0.52400460  0.12590705    -0.09300
C1121       C  0.07837992  0.49554764  0.12754317    -0.25900
S1122       S  0.09588270  0.42160415  0.16964176    -0.03100
C1123       C  0.12627020  0.43761425  0.18586629    -0.16500
C1124       C  0.14153046  0.46583281  0.18239558    -0.14500
H1125       H  0.15684287  0.51871065  0.16623558     0.20800
H1126       H  0.06542216  0.44195403  0.13921088     0.16900
H1127       H  0.05724202  0.48268835  0.12184981     0.19400
H1128       H  0.16059554  0.47928696  0.19186420     0.12700
C1129       C  0.98289821  0.67001548  0.10513486     0.16600
C1130       C  0.99608464  0.65840866  0.11850421    -0.32400
C1131       C  0.00487918  0.64259465  0.10512839     0.21000
C1132       C  0.00129627  0.63900565  0.07952249     0.03200
C1133       C  0.98774473  0.65019847  0.06627309    -0.22200
C1134       C  0.97846722  0.66548278  0.07970498     0.12400
S1135       S  0.97025094  0.68960815  0.11775402    -0.05800
C1136       C  0.95810138  0.69073843  0.08858832    -0.09300
C1137       C  0.96408210  0.67711105  0.07020024    -0.25900
S1138       S  0.01418325  0.61990963  0.06654065    -0.03100
C1139       C  0.02383341  0.61611183  0.09599133    -0.16500
C1140       C  0.01746108  0.62905886  0.11476213    -0.14500
H1141       H  0.99915362  0.66137347  0.13845392     0.20800
H1142       H  0.98439047  0.64696688  0.04636892     0.16900
H1143       H  0.95796785  0.67560193  0.05085259     0.19400
H1144       H  0.02197560  0.62869615  0.13434693     0.12700
C1145       C  0.12884975  0.66236133  0.18975656     0.16600
C1146       C  0.13715323  0.68375240  0.20724176    -0.32400
C1147       C  0.16477386  0.70493535  0.20665137     0.21000
C1148       C  0.18341815  0.70436914  0.18991628     0.03200
C1149       C  0.17518458  0.68297168  0.17265812    -0.22200
C1150       C  0.14751974  0.66233792  0.17275399     0.12400
S1151       S  0.09582964  0.63599917  0.18561453    -0.05800
C1152       C  0.10735095  0.62559524  0.16022610    -0.09300
C1153       C  0.13534454  0.64139809  0.15587111    -0.25900
S1154       S  0.21552690  0.73253991  0.19100696    -0.03100
C1155       C  0.20376510  0.74552484  0.21398271    -0.16500
C1156       C  0.17639160  0.72873468  0.22050113    -0.14500
H1157       H  0.12253353  0.68441573  0.22006488     0.20800
H1158       H  0.18951434  0.68298750  0.15904639     0.16900
H1159       H  0.14609182  0.63838702  0.14042982     0.19400
H1160       H  0.16537585  0.73417111  0.23388460     0.12700
C1161       C  0.54118221  0.81446200  0.21278386     0.16600
C1162       C  0.54460213  0.84003741  0.20515567    -0.32400
C1163       C  0.52655645  0.84003083  0.18702194     0.21000
C1164       C  0.50581314  0.81556237  0.17728114     0.03200
C1165       C  0.50177957  0.79004021  0.18556774    -0.22200
C1166       C  0.52003499  0.79005523  0.20335710     0.12400
S1167       S  0.56338323  0.81013570  0.23150311    -0.05800
C1168       C  0.54377219  0.77512836  0.22680108    -0.09300
C1169       C  0.52120415  0.76741270  0.21161320    -0.25900
S1170       S  0.48829525  0.81969844  0.15331332    -0.03100
C1171       C  0.50892752  0.85481746  0.15634191    -0.16500
C1172       C  0.52813266  0.86273559  0.17534864    -0.14500
H1173       H  0.56147369  0.85912401  0.21206103     0.20800
H1174       H  0.48596914  0.77100485  0.17750619     0.16900
H1175       H  0.50761813  0.74654507  0.20541064     0.19400
H1176       H  0.54355692  0.88382203  0.17926402     0.12700
C1177       C  0.48612823  0.58508874  0.15002910     0.16600
C1178       C  0.51086166  0.60654418  0.15928463    -0.32400
C1179       C  0.51048800  0.62934246  0.16964698     0.21000
C1180       C  0.48649320  0.63066944  0.17091273     0.03200
C1181       C  0.46190901  0.60958105  0.16089978    -0.22200
C1182       C  0.46231529  0.58680173  0.15039644     0.12400
S1183       S  0.48182843  0.55457729  0.13911850    -0.05800
C1184       C  0.44773421  0.54420637  0.13436683    -0.09300
C1185       C  0.44022937  0.56350173  0.14098423    -0.25900
S1186       S  0.48957579  0.65828367  0.18727340    -0.03100
C1187       C  0.52367651  0.66845515  0.19180231    -0.16500
C1188       C  0.53201198  0.65124975  0.18120532    -0.14500
H1189       H  0.52938380  0.60508791  0.15922312     0.20800
H1190       H  0.44308204  0.61041784  0.16207072     0.16900
H1191       H  0.41949157  0.56007649  0.14018655     0.19400
H1192       H  0.55220888  0.65355063  0.18348870     0.12700
C1193       C  0.79417620  0.51828473  0.30366457     0.16600
C1194       C  0.80734460  0.50290116  0.30852623    -0.32400
C1195       C  0.82613825  0.51149770  0.32850527     0.21000
C1196       C  0.83151049  0.53439264  0.34266053     0.03200
C1197       C  0.81901700  0.54992158  0.33743208    -0.22200
C1198       C  0.80031991  0.54130416  0.31784749     0.12400
S1199       S  0.76892627  0.51072125  0.28188798    -0.05800
C1200       C  0.76703078  0.53893249  0.29241450    -0.09300
C1201       C  0.78525938  0.55322262  0.31136226    -0.25900
S1202       S  0.85281436  0.54072612  0.36720590    -0.03100
C1203       C  0.85515110  0.51252685  0.35847116    -0.16500
C1204       C  0.84009596  0.49882941  0.33746408    -0.14500
H1205       H  0.80259048  0.48470602  0.29777928     0.20800
H1206       H  0.82306667  0.56758538  0.34872604     0.16900
H1207       H  0.78681345  0.57110145  0.32070719     0.19400
H1208       H  0.83859481  0.48020546  0.32989982     0.12700
C1209       C  0.78444424  0.61870726  0.17456133     0.16600
C1210       C  0.79555786  0.62307930  0.15032070    -0.32400
C1211       C  0.81987666  0.64798047  0.14557628     0.21000
C1212       C  0.83234760  0.66754001  0.16415686     0.03200
C1213       C  0.82119994  0.66323197  0.18821885    -0.22200
C1214       C  0.79706526  0.63843479  0.19297239     0.12400
S1215       S  0.75564627  0.58967480  0.18454048    -0.05800
C1216       C  0.76085206  0.60436841  0.21379177    -0.09300
C1217       C  0.78360374  0.63041382  0.21542660    -0.25900
S1218       S  0.86165664  0.69625211  0.15512856    -0.03100
C1219       C  0.85735031  0.68204006  0.12584906    -0.16500
C1220       C  0.83419813  0.65621081  0.12339014    -0.14500
H1221       H  0.78583334  0.60770027  0.13590649     0.20800
H1222       H  0.83106112  0.67851184  0.20269675     0.16900
H1223       H  0.79027613  0.64264219  0.23228552     0.19400
H1224       H  0.82819859  0.64419955  0.10639694     0.12700
C1225       C  0.64514540  0.62106549  0.24322423     0.16600
C1226       C  0.63910696  0.64002437  0.23203248    -0.32400
C1227       C  0.62321194  0.64845687  0.24567793     0.21000
C1228       C  0.61326311  0.63819517  0.26931433     0.03200
C1229       C  0.61960037  0.61941327  0.28069598    -0.22200
C1230       C  0.63592150  0.61127556  0.26714247     0.12400
S1231       S  0.66538240  0.60953237  0.23012502    -0.05800
C1232       C  0.66175753  0.59153785  0.25719355    -0.09300
C1233       C  0.64569014  0.59451244  0.27536908    -0.25900
S1234       S  0.59387360  0.65092745  0.28238955    -0.03100
C1235       C  0.59989087  0.67072538  0.25592105    -0.16500
C1236       C  0.61585417  0.66721479  0.23805476    -0.14500
H1237       H  0.64683028  0.64819281  0.21358652     0.20800
H1238       H  0.61243215  0.61175633  0.29937635     0.16900
H1239       H  0.64240023  0.58587023  0.29398821     0.19400
H1240       H  0.62168399  0.67778991  0.22023954     0.12700
C1241       C  0.63067363  0.48629385  0.35589997     0.16600
C1242       C  0.61327461  0.46262098  0.36990743    -0.32400
C1243       C  0.58596244  0.45645380  0.37357330     0.21000
C1244       C  0.57672659  0.47339976  0.36399406     0.03200
C1245       C  0.59423919  0.49736089  0.35078135    -0.22200
C1246       C  0.62124562  0.50328505  0.34685644     0.12400
S1247       S  0.66309218  0.49527905  0.34588205    -0.05800
C1248       C  0.66369843  0.52220029  0.32974214    -0.09300
C1249       C  0.64019368  0.52404433  0.33215790    -0.25900
S1250       S  0.54263924  0.46148591  0.36803080    -0.03100
C1251       C  0.54039982  0.43320430  0.38293615    -0.16500
C1252       C  0.56512169  0.43333631  0.38487993    -0.14500
H1253       H  0.62030893  0.44895181  0.37657859     0.20800
H1254       H  0.58675998  0.51018008  0.34286940     0.16900
H1255       H  0.63632580  0.53848156  0.32197671     0.19400
H1256       H  0.56744951  0.41693421  0.39303978     0.12700
C1257       C  0.16169821  0.47806960  0.67701262     0.16600
C1258       C  0.18745482  0.48166045  0.68342205    -0.32400
C1259       C  0.18821033  0.46336715  0.70081622     0.21000
C1260       C  0.16435309  0.44260678  0.71162910     0.03200
C1261       C  0.13862650  0.43963793  0.70587595    -0.22200
C1262       C  0.13783000  0.45772142  0.68816917     0.12400
S1263       S  0.15637641  0.49560469  0.65375182    -0.05800
C1264       C  0.12159979  0.47548889  0.65904859    -0.09300
C1265       C  0.11466489  0.45646709  0.67821754    -0.25900
S1266       S  0.16927017  0.42020663  0.72956107    -0.03100
C1267       C  0.20377815  0.43921566  0.72264045    -0.16500
C1268       C  0.21097785  0.46174857  0.70736764    -0.14500
H1269       H  0.20598870  0.49713818  0.67425536     0.20800
H1270       H  0.11993523  0.42305050  0.71385418     0.16900
H1271       H  0.09384064  0.44131952  0.68336281     0.19400
H1272       H  0.23141354  0.47493239  0.69992542     0.12700
C1273       C  0.33865913  0.49111112  0.65514574     0.16600
C1274       C  0.35958629  0.51567961  0.64481156    -0.32400
C1275       C  0.38046165  0.51445322  0.63141842     0.21000
C1276       C  0.38015170  0.48972373  0.62804835     0.03200
C1277       C  0.35849173  0.46496811  0.63726591    -0.22200
C1278       C  0.33794358  0.46628454  0.65109515     0.12400
S1279       S  0.31467155  0.48916947  0.67596896    -0.05800
C1280       C  0.30346840  0.45456983  0.67902129    -0.09300
C1281       C  0.31731929  0.44507106  0.66432846    -0.25900
S1282       S  0.40935038  0.49301660  0.61494417    -0.03100
C1283       C  0.42199581  0.52799798  0.61377890    -0.16500
C1284       C  0.40428209  0.53652879  0.62270606    -0.14500
H1285       H  0.36056317  0.53516443  0.64850118     0.20800
H1286       H  0.35862774  0.44579350  0.63520577     0.16900
H1287       H  0.31410567  0.42433767  0.66505536     0.19400
H1288       H  0.40944215  0.55783257  0.62454731     0.12700
C1289       C  0.44831023  0.17738959  0.80673902     0.16600
C1290       C  0.46598195  0.16831232  0.81554332    -0.32400
C1291       C  0.45421753  0.14337972  0.82889657     0.21000
C1292       C  0.42603915  0.12767571  0.83246018     0.03200
C1293       C  0.40842357  0.13662605  0.82351153    -0.22200
C1294       C  0.42026309  0.16199198  0.81105978     0.12400
S1295       S  0.45852514  0.20821080  0.79208814    -0.05800
C1296       C  0.42476649  0.20057872  0.79275989    -0.09300
C1297       C  0.40672289  0.17521499  0.80317936    -0.25900
S1298       S  0.41581279  0.09908031  0.85051555    -0.03100
C1299       C  0.44983469  0.10867550  0.85387020    -0.16500
C1300       C  0.46804774  0.13258904  0.84134804    -0.14500
H1301       H  0.48800002  0.18070278  0.81305625     0.20800
H1302       H  0.38653852  0.12492331  0.82710477     0.16900
H1303       H  0.38486167  0.16718278  0.80548872     0.19400
H1304       H  0.49019212  0.14227187  0.84240985     0.12700
C1305       C  0.34527976  0.32379842  0.73685726     0.16600
C1306       C  0.32842601  0.33202435  0.72479199    -0.32400
C1307       C  0.32279480  0.35075040  0.73721553     0.21000
C1308       C  0.33388346  0.36135693  0.76039298     0.03200
C1309       C  0.35060671  0.35298114  0.77255674    -0.22200
C1310       C  0.35577598  0.33379009  0.76035485     0.12400
S1311       S  0.35345678  0.30022403  0.72543399    -0.05800
C1312       C  0.37078042  0.30353555  0.75275619    -0.09300
C1313       C  0.37020967  0.32197156  0.76967780    -0.25900
S1314       S  0.32434633  0.38378539  0.77229299    -0.03100
C1315       C  0.30458744  0.37815160  0.74607320    -0.16500
C1316       C  0.30588217  0.36017252  0.72900711    -0.14500
H1317       H  0.31963407  0.32377035  0.70671679     0.20800
H1318       H  0.35880552  0.36068215  0.79091880     0.16900
H1319       H  0.37925580  0.32591215  0.78809221     0.19400
H1320       H  0.29473905  0.35405497  0.71157650     0.12700
C1321       C  0.46570245  0.34532667  0.85261043     0.16600
C1322       C  0.47348721  0.36791278  0.86843275    -0.32400
C1323       C  0.50140339  0.38398245  0.87432113     0.21000
C1324       C  0.52071668  0.37737128  0.86567074     0.03200
C1325       C  0.51291760  0.35473010  0.84978420    -0.22200
C1326       C  0.48508456  0.33924858  0.84309400     0.12400
S1327       S  0.43311234  0.32451410  0.84191273    -0.05800
C1328       C  0.44581522  0.30805253  0.82367550    -0.09300
C1329       C  0.47380098  0.31802055  0.82621387    -0.25900
S1330       S  0.55379984  0.40051810  0.87399840    -0.03100
C1331       C  0.54144809  0.41972460  0.88836478    -0.16500
C1332       C  0.51320499  0.40828838  0.88719208    -0.14500
H1333       H  0.45857358  0.37335890  0.87509413     0.20800
H1334       H  0.52803209  0.35005828  0.84217635     0.16900
H1335       H  0.48533103  0.31048943  0.81586351     0.19400
H1336       H  0.50205219  0.41804272  0.89429900     0.12700
C1337       C  0.45602464  0.84450838  0.65165749     0.16600
C1338       C  0.46245661  0.82947831  0.66847361    -0.32400
C1339       C  0.48964887  0.83497410  0.66894767     0.21000
C1340       C  0.50943217  0.85390777  0.65282317     0.03200
C1341       C  0.50297293  0.86890744  0.63590428    -0.22200
C1342       C  0.47595117  0.86409615  0.63602441     0.12400
S1343       S  0.42478936  0.84249993  0.64989810    -0.05800
C1344       C  0.43885982  0.86872403  0.62837169    -0.09300
C1345       C  0.46621591  0.87832641  0.62270288    -0.25900
S1346       S  0.54158952  0.85866460  0.65737667    -0.03100
C1347       C  0.52837555  0.83572349  0.68185680    -0.16500
C1348       C  0.50040118  0.82448921  0.68565731    -0.14500
H1349       H  0.44718360  0.81494165  0.68134078     0.20800
H1350       H  0.51857419  0.88443445  0.62391602     0.16900
H1351       H  0.47847638  0.89537420  0.61024211     0.19400
H1352       H  0.48880442  0.81042203  0.70063593     0.12700
C1353       C  0.30429310  0.82406959  0.68755394     0.16600
C1354       C  0.28277424  0.79956152  0.69755986    -0.32400
C1355       C  0.25941729  0.80002684  0.70643197     0.21000
C1356       C  0.25776946  0.82392345  0.70552208     0.03200
C1357       C  0.27966162  0.84859869  0.69645014    -0.22200
C1358       C  0.30285180  0.84808965  0.68742047     0.12400
S1359       S  0.33218614  0.82674179  0.67201867    -0.05800
C1360       C  0.34209285  0.86061334  0.66568079    -0.09300
C1361       C  0.32476629  0.86925922  0.67533763    -0.25900
S1362       S  0.22662293  0.81969171  0.71403577    -0.03100
C1363       C  0.21567785  0.78544048  0.71932083    -0.16500
C1364       C  0.23536216  0.77785530  0.71482725    -0.14500
H1365       H  0.28358859  0.78064751  0.69722485     0.20800
H1366       H  0.27810127  0.86707936  0.69527668     0.16900
H1367       H  0.32672090  0.88918005  0.67164379     0.19400
H1368       H  0.23171868  0.75700211  0.71612575     0.12700
C1369       C  0.18794530  0.12439758  0.53941794     0.16600
C1370       C  0.16975562  0.13314365  0.53140445    -0.32400
C1371       C  0.18113609  0.15984910  0.52149577     0.21000
C1372       C  0.20932382  0.17742957  0.52055875     0.03200
C1373       C  0.22744645  0.16866963  0.52845739    -0.22200
C1374       C  0.21610053  0.14167435  0.53740253     0.12400
S1375       S  0.17848330  0.09223490  0.55061521    -0.05800
C1376       C  0.21279572  0.10198644  0.55153775    -0.09300
C1377       C  0.23040868  0.12883876  0.54406631    -0.25900
S1378       S  0.21923556  0.20833334  0.50657623    -0.03100
C1379       C  0.18516910  0.19712771  0.50101326    -0.16500
C1380       C  0.16712655  0.17101387  0.51002336    -0.14500
H1381       H  0.14775435  0.11939371  0.53196706     0.20800
H1382       H  0.24946050  0.18195366  0.52675035     0.16900
H1383       H  0.25257289  0.13837004  0.54329650     0.19400
H1384       H  0.14517681  0.16014999  0.50687735     0.12700
C1385       C  0.29728006  0.98262937  0.60602686     0.16600
C1386       C  0.31184010  0.97263765  0.61955885    -0.32400
C1387       C  0.32314504  0.95902740  0.60620904     0.21000
C1388       C  0.31943874  0.95481360  0.58067445     0.03200
C1389       C  0.30522489  0.96510086  0.56713413    -0.22200
C1390       C  0.29461430  0.97936317  0.58034434     0.12400
S1391       S  0.28273959  0.00056979  0.61846197    -0.05800
C1392       C  0.27395687  0.00446022  0.58862252    -0.09300
C1393       C  0.28152876  0.99212306  0.57024884    -0.25900
S1394       S  0.33420549  0.93731272  0.56795004    -0.03100
C1395       C  0.34636214  0.93654696  0.59714540    -0.16500
C1396       C  0.33893906  0.94885971  0.61573379    -0.14500
H1397       H  0.31462930  0.97573582  0.63951599     0.20800
H1398       H  0.30291205  0.96248555  0.54710083     0.16900
H1399       H  0.27803398  0.99289537  0.55047264     0.19400
H1400       H  0.34477019  0.95023011  0.63514639     0.12700
C1401       C  0.17580777  0.95813202  0.49060728     0.16600
C1402       C  0.16913197  0.93779879  0.47231864    -0.32400
C1403       C  0.14206170  0.91557689  0.47195264     0.21000
C1404       C  0.12240021  0.91405819  0.48866711     0.03200
C1405       C  0.12905073  0.93435304  0.50684229    -0.22200
C1406       C  0.15619613  0.95614461  0.50759010     0.12400
S1407       S  0.20784927  0.98581848  0.49540244    -0.05800
C1408       C  0.19475528  0.99426817  0.52095798    -0.09300
C1409       C  0.16693212  0.97670481  0.52502268    -0.25900
S1410       S  0.09115233  0.88494617  0.48618410    -0.03100
C1411       C  0.10468542  0.87447388  0.46260291    -0.16500
C1412       C  0.13198719  0.89268850  0.45695905    -0.14500
H1413       H  0.18454090  0.93882083  0.45945330     0.20800
H1414       H  0.11391456  0.93276029  0.52034728     0.16900
H1415       H  0.15530212  0.97843172  0.54040706     0.19400
H1416       H  0.14404187  0.88884875  0.44339834     0.12700
C1417       C  0.32223872  0.14769411  0.64546392     0.16600
C1418       C  0.34385559  0.17169388  0.65586320    -0.32400
C1419       C  0.34195971  0.17685847  0.68126541     0.21000
C1420       C  0.31953459  0.15897395  0.69568033     0.03200
C1421       C  0.29795124  0.13498537  0.68529526    -0.22200
C1422       C  0.29985387  0.12982262  0.65992117     0.12400
S1423       S  0.32049700  0.13765709  0.61501030    -0.05800
C1424       C  0.28922549  0.10907846  0.62180896    -0.09300
C1425       C  0.28088869  0.10769415  0.64647679    -0.25900
S1426       S  0.32114152  0.16891133  0.72611262    -0.03100
C1427       C  0.35244702  0.19748880  0.71945456    -0.16500
C1428       C  0.36092158  0.19895430  0.69480892    -0.14500
H1429       H  0.36139059  0.18572281  0.64465404     0.20800
H1430       H  0.28041907  0.12094976  0.69650589     0.16900
H1431       H  0.26185015  0.09136499  0.65418352     0.19400
H1432       H  0.38002343  0.21528595  0.68720886     0.12700
C1433       C  0.84469993  0.45533812  0.86171638     0.16600
C1434       C  0.82921731  0.46292559  0.84664637    -0.32400
C1435       C  0.84113867  0.49072180  0.83973734     0.21000
C1436       C  0.86685026  0.51034954  0.84818959     0.03200
C1437       C  0.88225607  0.50278298  0.86333490    -0.22200
C1438       C  0.87078211  0.47485309  0.86946687     0.12400
S1439       S  0.83538188  0.42223122  0.86972751    -0.05800
C1440       C  0.86732754  0.43487003  0.88282079    -0.09300
C1441       C  0.88386707  0.46316890  0.88148224    -0.25900
S1442       S  0.87830763  0.54272360  0.83657974    -0.03100
C1443       C  0.84858381  0.52940563  0.81950847    -0.16500
C1444       C  0.83064364  0.50155785  0.82313203    -0.14500
H1445       H  0.80933190  0.44765218  0.83963648     0.20800
H1446       H  0.90281656  0.51779760  0.86911499     0.16900
H1447       H  0.90498223  0.47440172  0.88770153     0.19400
H1448       H  0.81146068  0.48966675  0.81328149     0.12700
C1449       C  0.83664336  0.29244540  0.82102559     0.16600
C1450       C  0.83033834  0.26930060  0.80638570    -0.32400
C1451       C  0.80253306  0.24948717  0.80357282     0.21000
C1452       C  0.78185796  0.25303650  0.81404461     0.03200
C1453       C  0.78816395  0.27612557  0.82870768    -0.22200
C1454       C  0.81597047  0.29539941  0.83229534     0.12400
S1455       S  0.86912041  0.31757106  0.82860733    -0.05800
C1456       C  0.85462662  0.33149742  0.84790169    -0.09300
C1457       C  0.82618548  0.31765562  0.84789537    -0.25900
S1458       S  0.74945655  0.22621456  0.80926878    -0.03100
C1459       C  0.76398094  0.20972650  0.79373714    -0.16500
C1460       C  0.79235191  0.22443339  0.79209179    -0.14500
H1461       H  0.84641827  0.26633614  0.79837089     0.20800
H1462       H  0.77212286  0.27841482  0.83774154     0.16900
H1463       H  0.81366834  0.32294450  0.85952944     0.19400
H1464       H  0.80483785  0.21676717  0.78372833     0.12700
C1465       C  0.97885671  0.47574233  0.97937341     0.16600
C1466       C  0.00119998  0.49771176  0.99123209    -0.32400
C1467       C  0.99949021  0.50021528  0.01714745     0.21000
C1468       C  0.97657355  0.48180057  0.03074529     0.03200
C1469       C  0.95418218  0.45984043  0.01886601    -0.22200
C1470       C  0.95592116  0.45728496  0.99293656     0.12400
S1471       S  0.97709584  0.46880287  0.94813978    -0.05800
C1472       C  0.94512950  0.44063060  0.95340089    -0.09300
C1473       C  0.93647704  0.43715840  0.97811906    -0.25900
S1474       S  0.97864454  0.48862155  0.06206735    -0.03100
C1475       C  0.01076025  0.51657352  0.05674022    -0.16500
C1476       C  0.01912739  0.52012360  0.03193667    -0.14500
H1477       H  0.01918948  0.51216096  0.98074209     0.20800
H1478       H  0.93623575  0.44533213  0.02936886     0.16900
H1479       H  0.91708424  0.42056649  0.98495699     0.19400
H1480       H  0.03857457  0.53655857  0.02502159     0.12700
C1481       C  0.12259915  0.18764522  0.97473883     0.16600
C1482       C  0.12937613  0.16927710  0.98623440    -0.32400
C1483       C  0.15490826  0.18044192  0.99824904     0.21000
C1484       C  0.17318373  0.20856259  0.99817392     0.03200
C1485       C  0.16629771  0.22688880  0.98694260    -0.22200
C1486       C  0.14052269  0.21580239  0.97557248     0.12400
S1487       S  0.09213849  0.17851967  0.96020476    -0.05800
C1488       C  0.10340223  0.21304306  0.95603960    -0.09300
C1489       C  0.12952386  0.23044194  0.96510935    -0.25900
S1490       S  0.20285237  0.21819707  0.01411512    -0.03100
C1491       C  0.19028893  0.18411954  0.02156602    -0.16500
C1492       C  0.16450531  0.16629512  0.01200541    -0.14500
H1493       H  0.11510811  0.14733095  0.98634862     0.20800
H1494       H  0.18016231  0.24891032  0.98759130     0.16900
H1495       H  0.13968050  0.25271110  0.96458611     0.19400
H1496       H  0.15310005  0.14435424  0.01559353     0.12700
C1497       C  0.13223014  0.30253991  0.84007516     0.16600
C1498       C  0.14309257  0.30819982  0.81584523    -0.32400
C1499       C  0.16840401  0.33214696  0.81215080     0.21000
C1500       C  0.18234823  0.34976486  0.83170648     0.03200
C1501       C  0.17144846  0.34410411  0.85602337    -0.22200
C1502       C  0.14602401  0.32009560  0.85972196     0.12400
S1503       S  0.10198020  0.27431168  0.84821423    -0.05800
C1504       C  0.10775125  0.28612444  0.87850482    -0.09300
C1505       C  0.13195582  0.31083882  0.88191202    -0.25900
S1506       S  0.21255647  0.37803982  0.82309567    -0.03100
C1507       C  0.20621589  0.36595744  0.79284140    -0.16500
C1508       C  0.18202031  0.34124828  0.78985381    -0.14500
H1509       H  0.13225579  0.29451407  0.80051623     0.20800
H1510       H  0.18224667  0.35783037  0.87133435     0.16900
H1511       H  0.13904224  0.32120677  0.89965090     0.19400
H1512       H  0.17450439  0.33076227  0.77221761     0.12700
C1513       C  0.98151049  0.29364652  0.89922710     0.16600
C1514       C  0.97222367  0.30972358  0.88729051    -0.32400
C1515       C  0.95716891  0.31867847  0.90159802     0.21000
C1516       C  0.95095895  0.31146098  0.92651369     0.03200
C1517       C  0.96042024  0.29556011  0.93850126    -0.22200
C1518       C  0.97602827  0.28714384  0.92434967     0.12400
S1519       S  0.00152946  0.28207592  0.88560692    -0.05800
C1520       C  0.00307570  0.26907790  0.91424994    -0.09300
C1521       C  0.98853545  0.27321237  0.93307197    -0.25900
S1522       S  0.93212128  0.32423096  0.94044754    -0.03100
C1523       C  0.93334467  0.34004216  0.91256035    -0.16500
C1524       C  0.94735023  0.33529341  0.89359442    -0.14500
H1525       H  0.97700267  0.31548761  0.86784584     0.20800
H1526       H  0.95625483  0.29041165  0.95811507     0.16900
H1527       H  0.98802860  0.26719395  0.95237074     0.19400
H1528       H  0.95013374  0.34355674  0.87485289     0.12700
C1529       C  0.96201402  0.17545189  0.01431879     0.16600
C1530       C  0.94059466  0.16814565  0.03152760    -0.32400
C1531       C  0.92212140  0.14000325  0.03514227     0.21000
C1532       C  0.92528290  0.11997114  0.02278545     0.03200
C1533       C  0.94660679  0.12727260  0.00551458    -0.22200
C1534       C  0.96455709  0.15539531  0.00134645     0.12400
S1535       S  0.98561498  0.20845989  0.00608105    -0.05800
C1536       C  0.99839357  0.19499001  0.98441456    -0.09300
C1537       C  0.98524341  0.16649607  0.98401802    -0.25900
S1538       S  0.89998811  0.08701816  0.02882239    -0.03100
C1539       C  0.88463345  0.10042818  0.04758891    -0.16500
C1540       C  0.89860707  0.12885582  0.04925632    -0.14500
H1541       H  0.93791609  0.18370812  0.04106289     0.20800
H1542       H  0.94856808  0.11172449  0.99515703     0.16900
H1543       H  0.99017712  0.15453712  0.97128511     0.19400
H1544       H  0.89122471  0.14072187  0.05927118     0.12700
C1545       C  0.48750745  0.08427390  0.36528643     0.16600
C1546       C  0.46175134  0.07974854  0.35766725    -0.32400
C1547       C  0.46087574  0.10079824  0.34430181     0.21000
C1548       C  0.48463826  0.12528537  0.33873234     0.03200
C1549       C  0.51032224  0.13019924  0.34711061    -0.22200
C1550       C  0.51118474  0.10912501  0.36050524     0.12400
S1551       S  0.49310098  0.06013909  0.37921384    -0.05800
C1552       C  0.52760181  0.08395873  0.37915825    -0.09300
C1553       C  0.53431879  0.10923628  0.36886275    -0.25900
S1554       S  0.47968335  0.14661618  0.31940382    -0.03100
C1555       C  0.44521140  0.12251785  0.31925219    -0.16500
C1556       C  0.43806027  0.09933344  0.33355489    -0.14500
H1557       H  0.44331443  0.06023753  0.36113607     0.20800
H1558       H  0.52892374  0.14915379  0.34252004     0.16900
H1559       H  0.55506470  0.12618167  0.36644630     0.19400
H1560       H  0.41765874  0.08149334  0.33442979     0.12700
C1561       C  0.67593511  0.12202530  0.32000998     0.16600
C1562       C  0.70095809  0.12913340  0.30822116    -0.32400
C1563       C  0.71870155  0.15701438  0.30260479     0.21000
C1564       C  0.71137441  0.17685332  0.30739878     0.03200
C1565       C  0.68631660  0.16974309  0.31920077    -0.22200
C1566       C  0.66911476  0.14201211  0.32585781     0.12400
S1567       S  0.65315911  0.08986585  0.33097117    -0.05800
C1568       C  0.63490320  0.10366853  0.34458999    -0.09300
C1569       C  0.64566470  0.13160637  0.34012987    -0.25900
S1570       S  0.73621502  0.20967072  0.29975715    -0.03100
C1571       C  0.75704443  0.19659619  0.29107625    -0.16500
C1572       C  0.74499449  0.16828140  0.29350602    -0.14500
H1573       H  0.70690922  0.11377937  0.30465178     0.20800
H1574       H  0.68103786  0.18532826  0.32400733     0.16900
H1575       H  0.63766558  0.14394999  0.34818789     0.19400
H1576       H  0.75524161  0.15666331  0.28943486     0.12700
C1577       C  0.46468492  0.95998632  0.51216341     0.16600
C1578       C  0.47409300  0.96394547  0.48736978    -0.32400
C1579       C  0.49799577  0.98868132  0.48142690     0.21000
C1580       C  0.51173046  0.00870209  0.49937446     0.03200
C1581       C  0.50227941  0.00476535  0.52418812    -0.22200
C1582       C  0.47849487  0.97989129  0.53018792     0.12400
S1583       S  0.43647171  0.93114939  0.52306218    -0.05800
C1584       C  0.44331195  0.94577902  0.55237060    -0.09300
C1585       C  0.46629562  0.97188959  0.55335898    -0.25900
S1586       S  0.54022178  0.03732015  0.48840920    -0.03100
C1587       C  0.53379192  0.02214508  0.45932770    -0.16500
C1588       C  0.51058595  0.99621629  0.45841078    -0.14500
H1589       H  0.46334718  0.94831170  0.47335970     0.20800
H1590       H  0.51309911  0.02034116  0.53822460     0.16900
H1591       H  0.47379647  0.98421321  0.57009871     0.19400
H1592       H  0.50322437  0.98364388  0.44179934     0.12700
C1593       C  0.79630349  0.85664485  0.47903305     0.16600
C1594       C  0.80847464  0.84779465  0.49665681    -0.32400
C1595       C  0.80102148  0.81996783  0.49653101     0.21000
C1596       C  0.78273088  0.80161214  0.47930466     0.03200
C1597       C  0.77055147  0.81052681  0.46147533    -0.22200
C1598       C  0.77754130  0.83839874  0.46198349     0.12400
S1599       S  0.80088783  0.88907853  0.47794431    -0.05800
C1600       C  0.77707522  0.87804487  0.45448842    -0.09300
C1601       C  0.76623162  0.85064458  0.44785510    -0.25900
S1602       S  0.77546176  0.76825764  0.48358116    -0.03100
C1603       C  0.79670284  0.77936826  0.50921088    -0.16500
C1604       C  0.80905778  0.80738778  0.51357422    -0.14500
H1605       H  0.82240634  0.86180861  0.51051966     0.20800
H1606       H  0.75557478  0.79621596  0.44842781     0.16900
H1607       H  0.75000863  0.83999961  0.43436540     0.19400
H1608       H  0.82242687  0.81790200  0.52917189     0.12700
C1609       C  0.69397954  0.00155615  0.40846333     0.16600
C1610       C  0.68365764  0.01652065  0.39603887    -0.32400
C1611       C  0.66688233  0.02388842  0.40971637     0.21000
C1612       C  0.66128653  0.01744277  0.43483885     0.03200
C1613       C  0.67156821  0.00246852  0.44722706    -0.22200
C1614       C  0.68760377  0.99436200  0.43336169     0.12400
S1615       S  0.71354425  0.98932378  0.39498641    -0.05800
C1616       C  0.71216256  0.97353298  0.42296262    -0.09300
C1617       C  0.69781707  0.97816352  0.44169036    -0.25900
S1618       S  0.63962522  0.02729698  0.44785420    -0.03100
C1619       C  0.63755290  0.03955182  0.41900880    -0.16500
C1620       C  0.65309776  0.03640151  0.40050218    -0.14500
H1621       H  0.68783783  0.02149368  0.37639662     0.20800
H1622       H  0.66656873  0.99663017  0.46663574     0.16900
H1623       H  0.69472992  0.96977373  0.46040480     0.19400
H1624       H  0.65341847  0.04203939  0.38111011     0.12700
C1625       C  0.80328512  0.01571284  0.51933017     0.16600
C1626       C  0.80833400  0.03770519  0.53509525    -0.32400
C1627       C  0.83578750  0.05761148  0.53950822     0.21000
C1628       C  0.85731626  0.05517113  0.52951828     0.03200
C1629       C  0.85226779  0.03320683  0.51369354    -0.22200
C1630       C  0.82480476  0.01390806  0.50846680     0.12400
S1631       S  0.77146077  0.99084859  0.50990935    -0.05800
C1632       C  0.78733055  0.97866767  0.49028490    -0.09300
C1633       C  0.81575578  0.99278344  0.49159517    -0.25900
S1634       S  0.88914397  0.08201531  0.53638688    -0.03100
C1635       C  0.87323070  0.09705075  0.55212841    -0.16500
C1636       C  0.84482611  0.08181903  0.55226793    -0.14500
H1637       H  0.79159234  0.03979918  0.54277252     0.20800
H1638       H  0.86901282  0.03184588  0.50502853     0.16900
H1639       H  0.82907940  0.98847809  0.48009004     0.19400
H1640       H  0.83153665  0.08859523  0.56047999     0.12700
C1641       C  0.68592667  0.84678574  0.34313777     0.16600
C1642       C  0.67967652  0.83565378  0.31900408    -0.32400
C1643       C  0.65514558  0.81064567  0.31580878     0.21000
C1644       C  0.63786932  0.79718020  0.33583572     0.03200
C1645       C  0.64429510  0.80811007  0.35997390    -0.22200
C1646       C  0.66854555  0.83329489  0.36308947     0.12400
S1647       S  0.71409543  0.87738223  0.35080885    -0.05800
C1648       C  0.70214758  0.87207064  0.38116823    -0.09300
C1649       C  0.67773653  0.84767689  0.38495433    -0.25900
S1650       S  0.60855946  0.76777741  0.32808380    -0.03100
C1651       C  0.61942888  0.77369006  0.29742320    -0.16500
C1652       C  0.64474988  0.79712993  0.29366404    -0.14500
H1653       H  0.69305702  0.84628404  0.30334445     0.20800
H1654       H  0.63066705  0.79772981  0.37555897     0.16900
H1655       H  0.66724051  0.84084331  0.40274188     0.19400
H1656       H  0.65465146  0.80426198  0.27567053     0.12700
loop_ 
_geom_bond_atom_site_label_1 
_geom_bond_atom_site_label_2 
_geom_bond_distance 
_geom_bond_site_symmetry_2 
_ccdc_geom_bond_type 
O1           Ni9   1.934       .  S
O1           C11   1.284       .  A
O2           Ni9   1.926       .  S
O2           C12   1.282       .  A
O3           Ni9   1.913       .  S
O3           C13   1.280       .  A
O4           Ni9   1.914       .  S
O4           C14   1.280       .  A
O5          Ni10   1.924       .  S
O5           C14   1.282       .  A
O6          Ni10   1.925       .  S
O6           C13   1.283       .  A
O7          Ni10   1.907       .  S
O7           C12   1.278       .  A
O8          Ni10   1.906       .  S
O8           C11   1.279       .  A
Ni9         Ni10   2.391       .  S
C11        C1616   1.472       .  S
C12        C1600   1.460       .  S
C13        C1648   1.474       .  S
C14        C1632   1.469       .  S
O15         Ni23   1.933       .  S
O15          C25   1.284       .  A
O16         Ni23   1.927       .  S
O16          C26   1.283       .  A
O17         Ni23   1.913       .  S
O17          C27   1.280       .  A
O18         Ni23   1.910       .  S
O18          C28   1.279       .  A
O19         Ni24   1.934       .  S
O19          C28   1.284       .  A
O20         Ni24   1.935       .  S
O20          C27   1.285       .  A
O21         Ni24   1.909       .  S
O21          C26   1.278       .  A
O22         Ni24   1.906       .  S
O22          C25   1.278       .  A
Ni23        Ni24   2.390       .  S
C25        C1619   1.466       .  S
C26        C1552   1.466       .  S
C27        C1587   1.479       .  S
C28        C1568   1.472       .  S
O29         Ni37   1.933       .  S
O29          C39   1.283       .  A
O30         Ni37   1.932       .  S
O30          C40   1.284       .  A
O31         Ni37   1.904       .  S
O31          C41   1.278       .  A
O32         Ni37   1.907       .  S
O32          C42   1.279       .  A
O33         Ni38   1.931       .  S
O33          C42   1.284       .  A
O34         Ni38   1.929       .  S
O34          C41   1.283       .  A
O35         Ni38   1.908       .  S
O35          C40   1.279       .  A
O36         Ni38   1.903       .  S
O36          C39   1.277       .  A
Ni37        Ni38   2.391       .  S
C39        C1520   1.464       .  S
C40        C1488   1.472       .  S
C41        C1536   1.468   1_455  S
C42        C1504   1.473       .  S
O43         Ni51   1.933       .  S
O43          C53   1.284       .  A
O44         Ni51   1.928       .  S
O44          C54   1.282       .  A
O45         Ni51   1.908       .  S
O45          C55   1.279       .  A
O46         Ni51   1.911       .  S
O46          C56   1.280       .  A
O47         Ni52   1.928       .  S
O47          C56   1.283       .  A
O48         Ni52   1.928       .  S
O48          C55   1.283       .  A
O49         Ni52   1.903       .  S
O49          C54   1.278       .  A
O50         Ni52   1.899       .  S
O50          C53   1.277       .  A
Ni51        Ni52   2.391       .  S
C53        C1523   1.468       .  S
C54        C1440   1.462       .  S
C55        C1456   1.467       .  S
C56        C1472   1.475       .  S
O57         Ni65   1.929       .  S
O57          C67   1.283       .  A
O58         Ni65   1.927       .  S
O58          C68   1.282       .  A
O59         Ni65   1.914       .  S
O59          C69   1.280       .  A
O60         Ni65   1.915       .  S
O60          C70   1.280       .  A
O61         Ni66   1.932       .  S
O61          C70   1.284       .  A
O62         Ni66   1.931       .  S
O62          C69   1.283       .  A
O63         Ni66   1.908       .  S
O63          C68   1.279       .  A
O64         Ni66   1.906       .  S
O64          C67   1.278       .  A
Ni65        Ni66   2.389       .  S
C67        C1392   1.465       .  S
C68        C1376   1.468       .  S
C69        C1408   1.477   1_545  S
C70        C1424   1.480       .  S
O71         Ni79   1.924       .  S
O71          C81   1.282       .  A
O72         Ni79   1.918       .  S
O72          C82   1.280       .  A
O73         Ni79   1.908       .  S
O73          C83   1.278       .  A
O74         Ni79   1.909       .  S
O74          C84   1.279       .  A
O75         Ni80   1.937       .  S
O75          C84   1.285       .  A
O76         Ni80   1.932       .  S
O76          C83   1.284       .  A
O77         Ni80   1.914       .  S
O77          C82   1.279       .  A
O78         Ni80   1.911       .  S
O78          C81   1.279       .  A
Ni79        Ni80   2.391       .  S
C81        C1395   1.466       .  S
C82        C1344   1.459       .  S
C83        C1360   1.466       .  S
C84        C1584   1.479       .  S
O85         Ni93   1.934       .  S
O85          C95   1.284       .  A
O86         Ni93   1.929       .  S
O86          C96   1.283       .  A
O87         Ni93   1.919       .  S
O87          C97   1.281       .  A
O88         Ni93   1.919       .  S
O88          C98   1.280       .  A
O89         Ni94   1.929       .  S
O89          C98   1.283       .  A
O90         Ni94   1.929       .  S
O90          C97   1.284       .  A
O91         Ni94   1.909       .  S
O91          C96   1.280       .  A
O92         Ni94   1.908       .  S
O92          C95   1.278       .  A
Ni93        Ni94   2.390       .  S
C95        C1312   1.467       .  S
C96        C1296   1.471       .  S
C97        C1427   1.480       .  S
C98        C1328   1.473       .  S
O99        Ni107   1.936       .  S
O99         C109   1.285       .  A
O100       Ni107   1.930       .  S
O100        C110   1.283       .  A
O101       Ni107   1.912       .  S
O101        C111   1.279       .  A
O102       Ni107   1.910       .  S
O102        C112   1.279       .  A
O103       Ni108   1.925       .  S
O103        C112   1.282       .  A
O104       Ni108   1.923       .  S
O104        C111   1.283       .  A
O105       Ni108   1.911       .  S
O105        C110   1.279       .  A
O106       Ni108   1.909       .  S
O106        C109   1.279       .  A
Ni107      Ni108   2.391       .  S
C109       C1315   1.476       .  S
C110       C1267   1.466       .  S
C111       C1507   1.472       .  S
C112       C1280   1.464       .  S
O113       Ni121   1.943       .  S
O113        C123   1.287       .  A
O114       Ni121   1.942       .  S
O114        C124   1.285       .  A
O115       Ni121   1.910       .  S
O115        C125   1.278       .  A
O116       Ni121   1.910       .  S
O116        C126   1.278       .  A
O117       Ni122   1.927       .  S
O117        C126   1.284       .  A
O118       Ni122   1.925       .  S
O118        C125   1.282       .  A
O119       Ni122   1.896       .  S
O119        C124   1.278       .  A
O120       Ni122   1.901       .  S
O120        C123   1.276       .  A
Ni121      Ni122   2.390       .  S
C123       C1232   1.469       .  S
C124       C1200   1.478       .  S
C125       C1248   1.461       .  S
C126       C1216   1.473       .  S
O127       Ni135   1.940       .  S
O127        C137   1.285       .  A
O128       Ni135   1.937       .  S
O128        C138   1.284       .  A
O129       Ni135   1.910       .  S
O129        C139   1.278       .  A
O130       Ni135   1.910       .  S
O130        C140   1.279       .  A
O131       Ni136   1.929       .  S
O131        C140   1.284       .  A
O132       Ni136   1.930       .  S
O132        C139   1.283       .  A
O133       Ni136   1.915       .  S
O133        C138   1.279       .  A
O134       Ni136   1.909       .  S
O134        C137   1.279       .  A
Ni135      Ni136   2.389       .  S
C137       C1235   1.479       .  S
C138       C1168   1.473       .  S
C139       C1187   1.467       .  S
C140       C1651   1.474       .  S
O141       Ni149   1.925       .  S
O141        C151   1.282       .  A
O142       Ni149   1.922       .  S
O142        C152   1.281       .  A
O143       Ni149   1.905       .  S
O143        C153   1.279       .  A
O144       Ni149   1.905       .  S
O144        C154   1.279       .  A
O145       Ni150   1.937       .  S
O145        C154   1.285       .  A
O146       Ni150   1.935       .  S
O146        C153   1.285       .  A
O147       Ni150   1.912       .  S
O147        C152   1.279       .  A
O148       Ni150   1.909       .  S
O148        C151   1.278       .  A
Ni149      Ni150   2.390       .  S
C151       C1139   1.463       .  S
C152       C1120   1.463       .  S
C153       C1475   1.476       .  S
C154       C1152   1.475       .  S
O155       Ni163   1.932       .  S
O155        C165   1.284       .  A
O156       Ni163   1.926       .  S
O156        C166   1.282       .  A
O157       Ni163   1.906       .  S
O157        C167   1.279       .  A
O158       Ni163   1.905       .  S
O158        C168   1.277       .  A
O159       Ni164   1.929       .  S
O159        C168   1.283       .  A
O160       Ni164   1.931       .  S
O160        C167   1.284       .  A
O161       Ni164   1.904       .  S
O161        C166   1.278       .  A
O162       Ni164   1.901       .  S
O162        C165   1.278       .  A
Ni163      Ni164   2.391       .  S
C165       C1136   1.468       .  S
C166       C1088   1.462       .  S
C167       C1219   1.473       .  S
C168       C1107   1.461       .  S
O169       Ni177   1.927       .  S
O169        C179   1.282       .  A
O170       Ni177   1.924       .  S
O170        C180   1.282       .  A
O171       Ni177   1.910       .  S
O171        C181   1.280       .  A
O172       Ni177   1.910       .  S
O172        C182   1.279       .  A
O173       Ni178   1.940       .  S
O173        C182   1.285       .  A
O174       Ni178   1.940       .  S
O174        C181   1.286       .  A
O175       Ni178   1.912       .  S
O175        C180   1.279       .  A
O176       Ni178   1.908       .  S
O176        C179   1.278       .  A
Ni177      Ni178   2.390       .  S
C179       C1072   1.464       .  S
C180       C1040   1.465       .  S
C181       C1059   1.481       .  S
C182       C1171   1.478       .  S
O183       Ni191   1.931       .  S
O183        C193   1.283       .  A
O184       Ni191   1.925       .  S
O184        C194   1.282       .  A
O185       Ni191   1.920       .  S
O185        C195   1.281       .  A
O186       Ni191   1.914       .  S
O186        C196   1.281       .  A
O187       Ni192   1.926       .  S
O187        C196   1.282       .  A
O188       Ni192   1.926       .  S
O188        C195   1.283       .  A
O189       Ni192   1.908       .  S
O189        C194   1.278       .  A
O190       Ni192   1.903       .  S
O190        C193   1.278       .  A
Ni191      Ni192   2.391       .  S
C193       C1075   1.468       .  S
C194       C1539   1.461       .  S
C195       C1008   1.478       .  S
C196       C1027   1.470   1_545  S
O197       Ni205   1.933       .  S
O197        C207   1.284       .  A
O198       Ni205   1.928       .  S
O198        C208   1.282       .  A
O199       Ni205   1.911       .  S
O199        C209   1.279       .  A
O200       Ni205   1.917       .  S
O200        C210   1.281       .  A
O201       Ni206   1.928       .  S
O201        C210   1.283       .  A
O202       Ni206   1.927       .  S
O202        C209   1.283       .  A
O203       Ni206   1.919       .  S
O203        C208   1.281       .  A
O204       Ni206   1.913       .  S
O204        C207   1.279       .  A
Ni205      Ni206   2.390       .  S
C207        C976   1.469       .  S
C208       C1571   1.472       .  S
C209        C992   1.469       .  S
C210       C1011   1.479       .  S
O211       Ni219   1.940       .  S
O211        C221   1.285       .  A
O212       Ni219   1.933       .  S
O212        C222   1.283       .  A
O213       Ni219   1.909       .  S
O213        C223   1.279       .  A
O214       Ni219   1.915       .  S
O214        C224   1.280       .  A
O215       Ni220   1.923       .  S
O215        C224   1.282       .  A
O216       Ni220   1.926       .  S
O216        C223   1.282       .  A
O217       Ni220   1.917       .  S
O217        C222   1.280       .  A
O218       Ni220   1.909       .  S
O218        C221   1.280       .  A
Ni219      Ni220   2.389       .  S
C221        C979   1.481       .  S
C222        C947   1.474       .  S
C223       C1123   1.466       .  S
C224        C963   1.474       .  S
O225       Ni233   1.926       .  S
O225        C235   1.282       .  A
O226       Ni233   1.921       .  S
O226        C236   1.281       .  A
O227       Ni233   1.914       .  S
O227        C237   1.280       .  A
O228       Ni233   1.909       .  S
O228        C238   1.279       .  A
O229       Ni234   1.923       .  S
O229        C238   1.281       .  A
O230       Ni234   1.925       .  S
O230        C237   1.283       .  A
O231       Ni234   1.915       .  S
O231        C236   1.280       .  A
O232       Ni234   1.911       .  S
O232        C235   1.279       .  A
Ni233      Ni234   2.391       .  S
C235        C931   1.468       .  S
C236        C915   1.464       .  S
C237        C960   1.474       .  S
C238       C1379   1.460       .  S
O239       Ni247   1.941       .  S
O239        C249   1.285       .  A
O240       Ni247   1.938       .  S
O240        C250   1.285       .  A
O241       Ni247   1.897       .  S
O241        C251   1.277       .  A
O242       Ni247   1.900       .  S
O242        C252   1.277       .  A
O243       Ni248   1.929       .  S
O243        C252   1.284       .  A
O244       Ni248   1.932       .  S
O244        C251   1.284       .  A
O245       Ni248   1.898       .  S
O245        C250   1.277       .  A
O246       Ni248   1.897       .  S
O246        C249   1.276       .  A
Ni247      Ni248   2.390       .  S
C249        C928   1.468       .  S
C250       C1251   1.472       .  S
C251        C880   1.469       .  S
C252        C896   1.467       .  S
O253       Ni261   1.935       .  S
O253        C263   1.284       .  A
O254       Ni261   1.927       .  S
O254        C264   1.282       .  A
O255       Ni261   1.908       .  S
O255        C265   1.278       .  A
O256       Ni261   1.905       .  S
O256        C266   1.278       .  A
O257       Ni262   1.926       .  S
O257        C266   1.284       .  A
O258       Ni262   1.930       .  S
O258        C265   1.283       .  A
O259       Ni262   1.908       .  S
O259        C264   1.278       .  A
O260       Ni262   1.907       .  S
O260        C263   1.278       .  A
Ni261      Ni262   2.391       .  S
C263        C848   1.469       .  S
C264       C1283   1.464       .  S
C265        C867   1.466       .  S
C266        C883   1.469       .  S
O267       Ni275   1.936       .  S
O267        C277   1.285       .  A
O268       Ni275   1.932       .  S
O268        C278   1.283       .  A
O269       Ni275   1.892       .  S
O269        C279   1.276       .  A
O270       Ni275   1.894       .  S
O270        C280   1.276       .  A
O271       Ni276   1.938       .  S
O271        C280   1.286       .  A
O272       Ni276   1.939       .  S
O272        C279   1.285       .  A
O273       Ni276   1.910       .  S
O273        C278   1.279       .  A
O274       Ni276   1.908       .  S
O274        C277   1.278       .  A
Ni275      Ni276   2.389       .  S
C277        C851   1.473       .  S
C278        C819   1.469       .  S
C279       C1603   1.470       .  S
C280        C835   1.470       .  S
O281       Ni289   1.936       .  S
O281        C291   1.284       .  A
O282       Ni289   1.929       .  S
O282        C292   1.283       .  A
O283       Ni289   1.908       .  S
O283        C293   1.279       .  A
O284       Ni289   1.900       .  S
O284        C294   1.277       .  A
O285       Ni290   1.930       .  S
O285        C294   1.283       .  A
O286       Ni290   1.923       .  S
O286        C293   1.283       .  A
O287       Ni290   1.915       .  S
O287        C292   1.280       .  A
O288       Ni290   1.907       .  S
O288        C291   1.278       .  A
Ni289      Ni290   2.391       .  S
C291        C800   1.466       .  S
C292        C784   1.471       .  S
C293        C832   1.470       .  S
C294       C1443   1.464       .  S
O295       Ni303   1.938       .  S
O295        C305   1.285       .  A
O296       Ni303   1.933       .  S
O296        C306   1.284       .  A
O297       Ni303   1.920       .  S
O297        C307   1.282       .  A
O298       Ni303   1.910       .  S
O298        C308   1.279       .  A
O299       Ni304   1.934       .  S
O299        C308   1.284       .  A
O300       Ni304   1.931       .  S
O300        C307   1.284       .  A
O301       Ni304   1.909       .  S
O301        C306   1.279       .  A
O302       Ni304   1.902       .  S
O302        C305   1.278       .  A
Ni303      Ni304   2.388       .  S
C305        C803   1.478       .  S
C306       C1363   1.470       .  S
C307        C768   1.482       .  S
C308        C752   1.473       .  S
O309       Ni317   1.931       .  S
O309        C319   1.283       .  A
O310       Ni317   1.927       .  S
O310        C320   1.282       .  A
O311       Ni317   1.913       .  S
O311        C321   1.279       .  A
O312       Ni317   1.924       .  S
O312        C322   1.282       .  A
O313       Ni318   1.922       .  S
O313        C322   1.283       .  A
O314       Ni318   1.926       .  S
O314        C321   1.281       .  A
O315       Ni318   1.913       .  S
O315        C320   1.279       .  A
O316       Ni318   1.911       .  S
O316        C319   1.279       .  A
Ni317      Ni318   2.391       .  S
C319        C736   1.466       .  S
C320        C723   1.464       .  S
C321       C1299   1.463       .  S
C322       C1056   1.479       .  S
O323       Ni331   1.942       .  S
O323        C333   1.286       .  A
O324       Ni331   1.934       .  S
O324        C334   1.284       .  A
O325       Ni331   1.904       .  S
O325        C335   1.278       .  A
O326       Ni331   1.916       .  S
O326        C336   1.280       .  A
O327       Ni332   1.932       .  S
O327        C336   1.285       .  A
O328       Ni332   1.936       .  S
O328        C335   1.284       .  A
O329       Ni332   1.901       .  S
O329        C334   1.278       .  A
O330       Ni332   1.899       .  S
O330        C333   1.278       .  A
Ni331      Ni332   2.388       .  S
C333        C739   1.478       .  S
C334       C1104   1.470       .  S
C335        C704   1.471   1_556  S
C336        C771   1.481       .  S
O337       Ni345   1.938       .  S
O337        C347   1.285       .  A
O338       Ni345   1.935       .  S
O338        C348   1.284       .  A
O339       Ni345   1.914       .  S
O339        C349   1.279       .  A
O340       Ni345   1.918       .  S
O340        C350   1.280       .  A
O341       Ni346   1.936       .  S
O341        C350   1.285       .  A
O342       Ni346   1.936       .  S
O342        C349   1.284       .  A
O343       Ni346   1.907       .  S
O343        C348   1.278       .  A
O344       Ni346   1.901       .  S
O344        C347   1.276       .  A
Ni345      Ni346   2.389       .  S
C347        C672   1.465       .  S
C348       C1331   1.470       .  S
C349        C787   1.474       .  S
C350        C688   1.483       .  S
O351       Ni359   1.931       .  S
O351        C361   1.284       .  A
O352       Ni359   1.926       .  S
O352        C362   1.282       .  A
O353       Ni359   1.910       .  S
O353        C363   1.279       .  A
O354       Ni359   1.910       .  S
O354        C364   1.279       .  A
O355       Ni360   1.917       .  S
O355        C364   1.281       .  A
O356       Ni360   1.920       .  S
O356        C363   1.281       .  A
O357       Ni360   1.911       .  S
O357        C362   1.279       .  A
O358       Ni360   1.909       .  S
O358        C361   1.279       .  A
Ni359      Ni360   2.392       .  S
C361        C675   1.472       .  S
C362       C1024   1.464       .  S
C363       C1091   1.460       .  S
C364        C656   1.467       .  S
O365       Ni373   1.928       .  S
O365        C375   1.283       .  A
O366       Ni373   1.923       .  S
O366        C376   1.281       .  A
O367       Ni373   1.905       .  S
O367        C377   1.279       .  A
O368       Ni373   1.906       .  S
O368        C378   1.279       .  A
O369       Ni374   1.933       .  S
O369        C378   1.284       .  A
O370       Ni374   1.934       .  S
O370        C377   1.285       .  A
O371       Ni374   1.912       .  S
O371        C376   1.279       .  A
O372       Ni374   1.918       .  S
O372        C375   1.280       .  A
Ni373      Ni374   2.390       .  S
C375        C640   1.473       .  S
C376       C1459   1.462       .  S
C377        C624   1.475       .  S
C378        C720   1.473       .  S
O379       Ni387   1.931       .  S
O379        C389   1.283       .  A
O380       Ni387   1.929       .  S
O380        C390   1.283       .  A
O381       Ni387   1.906       .  S
O381        C391   1.279       .  A
O382       Ni387   1.907       .  S
O382        C392   1.279       .  A
O383       Ni388   1.921       .  S
O383        C392   1.282       .  A
O384       Ni388   1.921       .  S
O384        C391   1.281       .  A
O385       Ni388   1.913       .  S
O385        C390   1.279       .  A
O386       Ni388   1.911       .  S
O386        C389   1.279       .  A
Ni387      Ni388   2.391       .  S
C389        C643   1.471       .  S
C390        C864   1.468       .  S
C391        C659   1.467       .  S
C392       C1347   1.467       .  S
O393       Ni401   1.929       .  S
O393        C403   1.283       .  A
O394       Ni401   1.927       .  S
O394        C404   1.282       .  A
O395       Ni401   1.907       .  S
O395        C405   1.279       .  A
O396       Ni401   1.909       .  S
O396        C406   1.279       .  A
O397       Ni402   1.930       .  S
O397        C406   1.284       .  A
O398       Ni402   1.927       .  S
O398        C405   1.283       .  A
O399       Ni402   1.914       .  S
O399        C404   1.279       .  A
O400       Ni402   1.910       .  S
O400        C403   1.279       .  A
Ni401      Ni402   2.391       .  S
C403        C608   1.469       .  S
C404       C1635   1.466       .  S
C405        C912   1.465       .  S
C406        C627   1.474       .  S
O407       Ni415   1.931       .  S
O407        C417   1.284       .  A
O408       Ni415   1.928       .  S
O408        C418   1.282       .  A
O409       Ni415   1.907       .  S
O409        C419   1.278       .  A
O410       Ni415   1.907       .  S
O410        C420   1.279       .  A
O411       Ni416   1.938       .  S
O411        C420   1.285       .  A
O412       Ni416   1.937       .  S
O412        C419   1.285       .  A
O413       Ni416   1.916       .  S
O413        C418   1.279       .  A
O414       Ni416   1.911       .  S
O414        C417   1.279       .  A
Ni415      Ni416   2.389       .  S
C417        C611   1.471       .  S
C418        C755   1.468       .  S
C419       C1264   1.473       .  S
C420        C592   1.479       .  S
O421       Ni429   1.929       .  S
O421        C431   1.283       .  A
O422       Ni429   1.931       .  S
O422        C432   1.283       .  A
O423       Ni429   1.913       .  S
O423        C433   1.280       .  A
O424       Ni429   1.908       .  S
O424        C434   1.279       .  A
O425       Ni430   1.930       .  S
O425        C434   1.282       .  A
O426       Ni430   1.932       .  S
O426        C433   1.285       .  A
O427       Ni430   1.904       .  S
O427        C432   1.277       .  A
O428       Ni430   1.906       .  S
O428        C431   1.278       .  A
Ni429      Ni430   2.390       .  S
C431        C579   1.464       .  S
C432        C995   1.463       .  S
C433        C595   1.478       .  S
C434       C1203   1.463       .  S
O435       Ni443   1.932       .  S
O435        C445   1.283       .  A
O436       Ni443   1.927       .  S
O436        C446   1.282       .  A
O437       Ni443   1.913       .  S
O437        C447   1.280       .  A
O438       Ni443   1.914       .  S
O438        C448   1.280       .  A
O439       Ni444   1.928       .  S
O439        C448   1.283       .  A
O440       Ni444   1.931       .  S
O440        C447   1.284       .  A
O441       Ni444   1.912       .  S
O441        C446   1.279       .  A
O442       Ni444   1.904       .  S
O442        C445   1.279       .  A
Ni443      Ni444   2.390       .  S
C445        C576   1.470       .  S
C446       C1411   1.464       .  S
C447        C560   1.478       .  S
C448        C816   1.470       .  S
O449       Ni457   1.931       .  S
O449        C459   1.284       .  A
O450       Ni457   1.924       .  S
O450        C460   1.281       .  A
O451       Ni457   1.902       .  S
O451        C461   1.277       .  A
O452       Ni457   1.904       .  S
O452        C462   1.279       .  A
O453       Ni458   1.937       .  S
O453        C462   1.285       .  A
O454       Ni458   1.933       .  S
O454        C461   1.284       .  A
O455       Ni458   1.909       .  S
O455        C460   1.278       .  A
O456       Ni458   1.911       .  S
O456        C459   1.280       .  A
Ni457      Ni458   2.391       .  S
C459        C544   1.476       .  S
C460        C899   1.460       .  S
C461       C1555   1.465       .  S
C462        C528   1.476       .  S
O463       Ni471   1.933       .  S
O463        C473   1.284       .  A
O464       Ni471   1.928       .  S
O464        C474   1.282       .  A
O465       Ni471   1.912       .  S
O465        C475   1.279       .  A
O466       Ni471   1.911       .  S
O466        C476   1.280       .  A
O467       Ni472   1.929       .  S
O467        C476   1.284       .  A
O468       Ni472   1.928       .  S
O468        C475   1.283       .  A
O469       Ni472   1.916       .  S
O469        C474   1.279       .  A
O470       Ni472   1.911       .  S
O470        C473   1.278       .  A
Ni471      Ni472   2.391       .  S
C473        C547   1.468       .  S
C474       C1155   1.466       .  S
C475       C1043   1.468       .  S
C476        C563   1.476       .  S
O477       Ni485   1.929       .  S
O477        C487   1.283       .  A
O478       Ni485   1.928       .  S
O478        C488   1.282       .  A
O479       Ni485   1.916       .  S
O479        C489   1.280       .  A
O480       Ni485   1.915       .  S
O480        C490   1.279       .  A
O481       Ni486   1.927       .  S
O481        C490   1.283       .  A
O482       Ni486   1.927       .  S
O482        C489   1.284       .  A
O483       Ni486   1.911       .  S
O483        C488   1.279       .  A
O484       Ni486   1.906       .  S
O484        C487   1.278       .  A
Ni485      Ni486   2.391       .  S
C487        C512   1.463       .  S
C488        C707   1.466       .  S
C489        C531   1.476       .  S
C490       C1491   1.467       .  S
O491       Ni499   1.935       .  S
O491        C501   1.284       .  A
O492       Ni499   1.931       .  S
O492        C502   1.284       .  A
O493       Ni499   1.916       .  S
O493        C503   1.280       .  A
O494       Ni499   1.912       .  S
O494        C504   1.279       .  A
O495       Ni500   1.938       .  S
O495        C504   1.285       .  A
O496       Ni500   1.940       .  S
O496        C503   1.286       .  A
O497       Ni500   1.910       .  S
O497        C502   1.278       .  A
O498       Ni500   1.902       .  S
O498        C501   1.278       .  A
Ni499      Ni500   2.389       .  S
C501        C515   1.470       .  S
C502       C1184   1.470       .  S
C503        C691   1.484       .  S
C504        C944   1.476       .  S
C505        S511   1.711       .  A
C505        C510   1.387       .  A
C505        C506   1.400       .  A
C506        C507   1.403       .  A
C506        H517   1.083       .  S
C507        C516   1.366       .  A
C507        C508   1.387       .  A
C508        S514   1.714       .  A
C508        C509   1.402       .  A
C509        C510   1.405       .  A
C509        H518   1.083       .  S
C510        C513   1.369       .  A
S511        C512   1.719       .  A
C512        C513   1.385       .  A
C513        H519   1.083       .  S
S514        C515   1.721       .  A
C515        C516   1.386       .  A
C516        H520   1.083       .  S
C521        S527   1.700       .  A
C521        C526   1.387       .  A
C521        C522   1.399       .  A
C522        C523   1.399       .  A
C522        H533   1.083       .  S
C523        C532   1.371       .  A
C523        C524   1.387       .  A
C524        S530   1.710       .  A
C524        C525   1.407       .  A
C525        C526   1.407       .  A
C525        H534   1.083       .  S
C526        C529   1.379       .  A
S527        C528   1.723       .  A
C528        C529   1.390       .  A
C529        H535   1.083       .  S
S530        C531   1.727       .  A
C531        C532   1.385       .  A
C532        H536   1.083       .  S
C537        S543   1.712   1_565  A
C537        C542   1.386       .  A
C537        C538   1.403       .  A
C538        C539   1.405       .  A
C538        H549   1.083       .  S
C539        C548   1.373       .  A
C539        C540   1.387       .  A
C540        S546   1.711       .  A
C540        C541   1.403       .  A
C541        C542   1.404       .  A
C541        H550   1.083       .  S
C542        C545   1.371   1_565  A
S543        C544   1.723       .  A
C544        C545   1.389       .  A
C545        H551   1.083       .  S
S546        C547   1.721       .  A
C547        C548   1.386       .  A
C548        H552   1.083       .  S
C553        S559   1.713       .  A
C553        C558   1.386       .  A
C553        C554   1.404       .  A
C554        C555   1.405       .  A
C554        H565   1.083       .  S
C555        C564   1.371       .  A
C555        C556   1.386       .  A
C556        S562   1.710       .  A
C556        C557   1.401       .  A
C557        C558   1.403       .  A
C557        H566   1.083       .  S
C558        C561   1.370       .  A
S559        C560   1.725       .  A
C560        C561   1.388       .  A
C561        H567   1.083       .  S
S562        C563   1.722       .  A
C563        C564   1.390       .  A
C564        H568   1.083       .  S
C569        S575   1.714       .  A
C569        C574   1.387       .  A
C569        C570   1.402       .  A
C570        C571   1.405       .  A
C570        H581   1.083       .  S
C571        C580   1.368       .  A
C571        C572   1.387       .  A
C572        S578   1.710       .  A
C572        C573   1.399       .  A
C573        C574   1.402       .  A
C573        H582   1.083       .  S
C574        C577   1.366   1_655  A
S575        C576   1.722   1_655  A
C576        C577   1.386       .  A
C577        H583   1.083       .  S
S578        C579   1.718       .  A
C579        C580   1.386       .  A
C580        H584   1.083       .  S
C585        S591   1.715       .  A
C585        C590   1.386   1_655  A
C585        C586   1.404       .  A
C586        C587   1.406       .  A
C586        H597   1.083       .  S
C587        C596   1.372       .  A
C587        C588   1.386       .  A
C588        S594   1.712       .  A
C588        C589   1.402   1_655  A
C589        C590   1.404       .  A
C589        H598   1.083       .  S
C590        C593   1.370       .  A
S591        C592   1.724   1_655  A
C592        C593   1.389       .  A
C593        H599   1.083       .  S
S594        C595   1.723       .  A
C595        C596   1.390       .  A
C596        H600   1.083       .  S
C601        S607   1.712       .  A
C601        C606   1.387       .  A
C601        C602   1.403   1_655  A
C602        C603   1.405       .  A
C602        H613   1.083       .  S
C603        C612   1.371       .  A
C603        C604   1.387       .  A
C604        S610   1.711       .  A
C604        C605   1.402       .  A
C605        C606   1.403   1_455  A
C605        H614   1.083       .  S
C606        C609   1.369       .  A
S607        C608   1.721       .  A
C608        C609   1.386       .  A
C609        H615   1.083       .  S
S610        C611   1.721       .  A
C611        C612   1.387       .  A
C612        H616   1.083       .  S
C617        S623   1.713       .  A
C617        C622   1.386       .  A
C617        C618   1.402       .  A
C618        C619   1.405       .  A
C618        H629   1.083       .  S
C619        C628   1.369       .  A
C619        C620   1.387       .  A
C620        S626   1.711       .  A
C620        C621   1.401       .  A
C621        C622   1.403       .  A
C621        H630   1.083       .  S
C622        C625   1.368       .  A
S623        C624   1.724       .  A
C624        C625   1.388       .  A
C625        H631   1.083       .  S
S626        C627   1.722       .  A
C627        C628   1.388       .  A
C628        H632   1.083       .  S
C633        S639   1.710       .  A
C633        C638   1.387       .  A
C633        C634   1.402   1_545  A
C634        C635   1.403       .  A
C634        H645   1.083       .  S
C635        C644   1.370       .  A
C635        C636   1.387       .  A
C636        S642   1.713       .  A
C636        C637   1.404       .  A
C637        C638   1.406   1_565  A
C637        H646   1.083       .  S
C638        C641   1.373       .  A
S639        C640   1.721       .  A
C640        C641   1.388       .  A
C641        H647   1.083       .  S
S642        C643   1.722       .  A
C643        C644   1.386       .  A
C644        H648   1.083       .  S
C649        S655   1.704       .  A
C649        C654   1.387       .  A
C649        C650   1.397       .  A
C650        C651   1.399       .  A
C650        H661   1.083       .  S
C651        C660   1.364       .  A
C651        C652   1.387       .  A
C652        S658   1.709       .  A
C652        C653   1.401       .  A
C653        C654   1.403       .  A
C653        H662   1.083       .  S
C654        C657   1.368       .  A
S655        C656   1.720       .  A
C656        C657   1.387       .  A
C657        H663   1.083       .  S
S658        C659   1.723       .  A
C659        C660   1.384       .  A
C660        H664   1.083       .  S
C665        S671   1.713       .  A
C665        C670   1.387       .  A
C665        C666   1.402       .  A
C666        C667   1.404       .  A
C666        H677   1.083       .  S
C667        C676   1.369       .  A
C667        C668   1.387       .  A
C668        S674   1.712       .  A
C668        C669   1.402       .  A
C669        C670   1.404       .  A
C669        H678   1.083       .  S
C670        C673   1.369       .  A
S671        C672   1.720       .  A
C672        C673   1.386       .  A
C673        H679   1.084       .  S
S674        C675   1.722       .  A
C675        C676   1.387       .  A
C676        H680   1.083       .  S
C681        S687   1.710   1_554  A
C681        C686   1.386   1_554  A
C681        C682   1.407       .  A
C682        C683   1.407       .  A
C682        H693   1.083       .  S
C683        C692   1.380       .  A
C683        C684   1.386       .  A
C684        S690   1.707       .  A
C684        C685   1.405   1_554  A
C685        C686   1.404       .  A
C685        H694   1.083       .  S
C686        C689   1.378       .  A
S687        C688   1.728       .  A
C688        C689   1.389       .  A
C689        H695   1.083       .  S
S690        C691   1.727       .  A
C691        C692   1.391       .  A
C692        H696   1.083       .  S
C697        S703   1.714   1_545  A
C697        C702   1.387       .  A
C697        C698   1.403       .  A
C698        C699   1.405       .  A
C698        H709   1.083       .  S
C699        C708   1.371       .  A
C699        C700   1.387       .  A
C700        S706   1.710       .  A
C700        C701   1.400       .  A
C701        C702   1.403       .  A
C701        H710   1.083       .  S
C702        C705   1.368   1_545  A
S703        C704   1.722       .  A
C704        C705   1.386       .  A
C705        H711   1.084   1_554  S
S706        C707   1.719       .  A
C707        C708   1.386       .  A
C708        H712   1.083       .  S
C713        S719   1.714       .  A
C713        C718   1.387       .  A
C713        C714   1.403       .  A
C714        C715   1.405       .  A
C714        H725   1.083       .  S
C715        C724   1.372       .  A
C715        C716   1.388       .  A
C716        S722   1.709       .  A
C716        C717   1.400       .  A
C717        C718   1.402       .  A
C717        H726   1.083       .  S
C718        C721   1.368       .  A
S719        C720   1.723       .  A
C720        C721   1.387       .  A
C721        H727   1.083       .  S
S722        C723   1.719       .  A
C723        C724   1.385       .  A
C724        H728   1.083       .  S
C729        S735   1.706       .  A
C729        C734   1.388       .  A
C729        C730   1.398   1_545  A
C730        C731   1.400       .  A
C730        H741   1.083       .  S
C731        C740   1.366       .  A
C731        C732   1.386   1_565  A
C732        S738   1.718   1_545  A
C732        C733   1.407       .  A
C733        C734   1.409       .  A
C733        H742   1.083       .  S
C734        C737   1.376       .  A
S735        C736   1.718       .  A
C736        C737   1.389       .  A
C737        H743   1.083       .  S
S738        C739   1.726       .  A
C739        C740   1.387       .  A
C740        H744   1.083       .  S
C745        S751   1.712       .  A
C745        C750   1.387       .  A
C745        C746   1.404       .  A
C746        C747   1.405       .  A
C746        H757   1.083       .  S
C747        C756   1.374       .  A
C747        C748   1.387       .  A
C748        S754   1.710       .  A
C748        C749   1.403       .  A
C749        C750   1.404       .  A
C749        H758   1.083       .  S
C750        C753   1.372       .  A
S751        C752   1.723       .  A
C752        C753   1.387       .  A
C753        H759   1.083       .  S
S754        C755   1.720       .  A
C755        C756   1.387       .  A
C756        H760   1.083       .  S
C761        S767   1.714       .  A
C761        C766   1.386       .  A
C761        C762   1.405       .  A
C762        C763   1.406       .  A
C762        H773   1.083       .  S
C763        C772   1.374       .  A
C763        C764   1.386       .  A
C764        S770   1.712       .  A
C764        C765   1.404       .  A
C765        C766   1.405       .  A
C765        H774   1.083       .  S
C766        C769   1.373       .  A
S767        C768   1.726       .  A
C768        C769   1.390       .  A
C769        H775   1.083       .  S
S770        C771   1.724       .  A
C771        C772   1.391       .  A
C772        H776   1.083       .  S
C777        S783   1.710       .  A
C777        C782   1.387       .  A
C777        C778   1.403       .  A
C778        C779   1.404       .  A
C778        H789   1.083       .  S
C779        C788   1.373       .  A
C779        C780   1.387       .  A
C780        S786   1.713       .  A
C780        C781   1.405       .  A
C781        C782   1.406       .  A
C781        H790   1.083       .  S
C782        C785   1.374       .  A
S783        C784   1.721       .  A
C784        C785   1.388       .  A
C785        H791   1.083       .  S
S786        C787   1.723       .  A
C787        C788   1.387       .  A
C788        H792   1.083       .  S
C793        S799   1.705       .  A
C793        C798   1.387       .  A
C793        C794   1.399       .  A
C794        C795   1.400   1_655  A
C794        H805   1.083       .  S
C795        C804   1.366       .  A
C795        C796   1.386       .  A
C796        S802   1.717       .  A
C796        C797   1.407   1_455  A
C797        C798   1.408       .  A
C797        H806   1.083       .  S
C798        C801   1.376       .  A
S799        C800   1.719       .  A
C800        C801   1.388       .  A
C801        H807   1.083       .  S
S802        C803   1.726       .  A
C803        C804   1.387       .  A
C804        H808   1.083       .  S
C809        S815   1.710       .  A
C809        C814   1.387       .  A
C809        C810   1.402       .  A
C810        C811   1.403       .  A
C810        H821   1.083       .  S
C811        C820   1.370       .  A
C811        C812   1.387       .  A
C812        S818   1.713       .  A
C812        C813   1.404       .  A
C813        C814   1.405       .  A
C813        H822   1.083       .  S
C814        C817   1.372       .  A
S815        C816   1.721   1_655  A
C816        C817   1.387   1_455  A
C817        H823   1.083       .  S
S818        C819   1.721       .  A
C819        C820   1.386       .  A
C820        H824   1.083       .  S
C825        S831   1.705       .  A
C825        C830   1.387       .  A
C825        C826   1.403       .  A
C826        C827   1.402       .  A
C826        H837   1.083       .  S
C827        C836   1.375       .  A
C827        C828   1.388       .  A
C828        S834   1.698       .  A
C828        C829   1.399       .  A
C829        C830   1.399       .  A
C829        H838   1.083       .  S
C830        C833   1.370       .  A
S831        C832   1.725       .  A
C832        C833   1.384       .  A
C833        H839   1.083       .  S
S834        C835   1.724       .  A
C835        C836   1.386       .  A
C836        H840   1.083       .  S
C841        S847   1.715       .  A
C841        C846   1.387       .  A
C841        C842   1.404       .  A
C842        C843   1.406       .  A
C842        H853   1.083       .  S
C843        C852   1.372       .  A
C843        C844   1.387       .  A
C844        S850   1.712       .  A
C844        C845   1.401       .  A
C845        C846   1.403       .  A
C845        H854   1.083       .  S
C846        C849   1.369       .  A
S847        C848   1.722       .  A
C848        C849   1.385       .  A
C849        H855   1.083       .  S
S850        C851   1.721       .  A
C851        C852   1.389       .  A
C852        H856   1.083       .  S
C857        S863   1.707       .  A
C857        C862   1.388       .  A
C857        C858   1.403       .  A
C858        C859   1.403       .  A
C858        H869   1.083       .  S
C859        C868   1.373       .  A
C859        C860   1.388       .  A
C860        S866   1.707       .  A
C860        C861   1.403       .  A
C861        C862   1.403       .  A
C861        H870   1.083       .  S
C862        C865   1.374       .  A
S863        C864   1.722       .  A
C864        C865   1.385       .  A
C865        H871   1.083       .  S
S866        C867   1.722       .  A
C867        C868   1.385       .  A
C868        H872   1.083       .  S
C873        S879   1.698       .  A
C873        C878   1.388       .  A
C873        C874   1.399       .  A
C874        C875   1.398       .  A
C874        H885   1.083       .  S
C875        C884   1.370       .  A
C875        C876   1.387       .  A
C876        S882   1.704       .  A
C876        C877   1.403       .  A
C877        C878   1.402       .  A
C877        H886   1.083       .  S
C878        C881   1.374       .  A
S879        C880   1.723       .  A
C880        C881   1.386       .  A
C881        H887   1.083       .  S
S882        C883   1.725       .  A
C883        C884   1.384       .  A
C884        H888   1.083       .  S
C889        S895   1.703       .  A
C889        C894   1.388       .  A
C889        C890   1.400       .  A
C890        C891   1.401       .  A
C890        H901   1.083       .  S
C891        C900   1.370       .  A
C891        C892   1.388       .  A
C892        S898   1.706       .  A
C892        C893   1.401       .  A
C893        C894   1.401       .  A
C893        H902   1.083       .  S
C894        C897   1.371       .  A
S895        C896   1.723       .  A
C896        C897   1.384       .  A
C897        H903   1.083       .  S
S898        C899   1.719       .  A
C899        C900   1.383       .  A
C900        H904   1.083       .  S
C905        S911   1.710   1_455  A
C905        C910   1.387       .  A
C905        C906   1.402       .  A
C906        C907   1.403       .  A
C906        H917   1.083       .  S
C907        C916   1.370       .  A
C907        C908   1.388       .  A
C908        S914   1.708       .  A
C908        C909   1.401       .  A
C909        C910   1.402       .  A
C909        H918   1.083       .  S
C910        C913   1.369   1_455  A
S911        C912   1.721       .  A
C912        C913   1.385       .  A
C913        H919   1.083       .  S
S914        C915   1.720       .  A
C915        C916   1.385       .  A
C916        H920   1.083       .  S
C921        S927   1.714       .  A
C921        C926   1.387       .  A
C921        C922   1.404       .  A
C922        C923   1.406       .  A
C922        H933   1.083       .  S
C923        C932   1.370       .  A
C923        C924   1.387       .  A
C924        S930   1.711       .  A
C924        C925   1.400       .  A
C925        C926   1.403       .  A
C925        H934   1.083       .  S
C926        C929   1.367       .  A
S927        C928   1.722       .  A
C928        C929   1.386       .  A
C929        H935   1.084       .  S
S930        C931   1.719       .  A
C931        C932   1.387       .  A
C932        H936   1.083       .  S
C937        S943   1.713       .  A
C937        C942   1.387       .  A
C937        C938   1.404       .  A
C938        C939   1.405       .  A
C938        H949   1.083       .  S
C939        C948   1.373       .  A
C939        C940   1.387       .  A
C940        S946   1.714       .  A
C940        C941   1.405       .  A
C941        C942   1.406       .  A
C941        H950   1.083       .  S
C942        C945   1.374       .  A
S943        C944   1.723       .  A
C944        C945   1.389       .  A
C945        H951   1.083       .  S
S946        C947   1.723       .  A
C947        C948   1.387       .  A
C948        H952   1.083       .  S
C953        S959   1.707       .  A
C953        C958   1.387       .  A
C953        C954   1.403       .  A
C954        C955   1.403       .  A
C954        H965   1.083       .  S
C955        C964   1.373       .  A
C955        C956   1.387       .  A
C956        S962   1.706       .  A
C956        C957   1.401       .  A
C957        C958   1.402       .  A
C957        H966   1.083       .  S
C958        C961   1.371       .  A
S959        C960   1.725       .  A
C960        C961   1.386       .  A
C961        H967   1.083       .  S
S962        C963   1.724       .  A
C963        C964   1.388       .  A
C964        H968   1.083       .  S
C969        S975   1.709       .  A
C969        C974   1.387       .  A
C969        C970   1.400       .  A
C970        C971   1.402   1_655  A
C970        H981   1.083       .  S
C971        C980   1.368       .  A
C971        C972   1.386       .  A
C972        S978   1.718       .  A
C972        C973   1.408   1_455  A
C973        C974   1.409       .  A
C973        H982   1.083       .  S
C974        C977   1.376       .  A
S975        C976   1.718       .  A
C976        C977   1.389       .  A
C977        H983   1.083       .  S
S978        C979   1.727       .  A
C979        C980   1.388       .  A
C980        H984   1.083       .  S
C985        S991   1.709       .  A
C985        C990   1.387       .  A
C985        C986   1.401       .  A
C986        C987   1.402       .  A
C986        H997   1.083       .  S
C987        C996   1.369       .  A
C987        C988   1.387       .  A
C988        S994   1.710       .  A
C988        C989   1.402       .  A
C989        C990   1.404       .  A
C989        H998   1.083       .  S
C990        C993   1.371       .  A
S991        C992   1.721       .  A
C992        C993   1.387       .  A
C993        H999   1.083       .  S
S994        C995   1.720       .  A
C995        C996   1.384       .  A
C996       H1000   1.083       .  S
C1001      S1007   1.707       .  A
C1001      C1006   1.387       .  A
C1001      C1002   1.401       .  A
C1002      C1003   1.402       .  A
C1002      H1013   1.083       .  S
C1003      C1012   1.370       .  A
C1003      C1004   1.386       .  A
C1004      S1010   1.714       .  A
C1004      C1005   1.406       .  A
C1005      C1006   1.407       .  A
C1005      H1014   1.083       .  S
C1006      C1009   1.375       .  A
S1007      C1008   1.722       .  A
C1008      C1009   1.391       .  A
C1009      H1015   1.083       .  S
S1010      C1011   1.726       .  A
C1011      C1012   1.387       .  A
C1012      H1016   1.083       .  S
C1017      S1023   1.709       .  A
C1017      C1022   1.387       .  A
C1017      C1018   1.401       .  A
C1018      C1019   1.402       .  A
C1018      H1029   1.083   1_556  S
C1019      C1028   1.369   1_556  A
C1019      C1020   1.387       .  A
C1020      S1026   1.711       .  A
C1020      C1021   1.403       .  A
C1021      C1022   1.404       .  A
C1021      H1030   1.083       .  S
C1022      C1025   1.371       .  A
S1023      C1024   1.719       .  A
C1024      C1025   1.386       .  A
C1025      H1031   1.083       .  S
S1026      C1027   1.722   1_556  A
C1027      C1028   1.386       .  A
C1028      H1032   1.083       .  S
C1033      S1039   1.707       .  A
C1033      C1038   1.388       .  A
C1033      C1034   1.402       .  A
C1034      C1035   1.403       .  A
C1034      H1045   1.083       .  S
C1035      C1044   1.373       .  A
C1035      C1036   1.388       .  A
C1036      S1042   1.706       .  A
C1036      C1037   1.402       .  A
C1037      C1038   1.402       .  A
C1037      H1046   1.083       .  S
C1038      C1041   1.372       .  A
S1039      C1040   1.721       .  A
C1040      C1041   1.384       .  A
C1041      H1047   1.083       .  S
S1042      C1043   1.722       .  A
C1043      C1044   1.385       .  A
C1044      H1048   1.083       .  S
C1049      S1055   1.713   1_554  A
C1049      C1054   1.386   1_554  A
C1049      C1050   1.408       .  A
C1050      C1051   1.408   1_545  A
C1050      H1061   1.083       .  S
C1051      C1060   1.380       .  A
C1051      C1052   1.387       .  A
C1052      S1058   1.703       .  A
C1052      C1053   1.401   1_554  A
C1053      C1054   1.401   1_565  A
C1053      H1062   1.083       .  S
C1054      C1057   1.372       .  A
S1055      C1056   1.727       .  A
C1056      C1057   1.387       .  A
C1057      H1063   1.083   1_545  S
S1058      C1059   1.725       .  A
C1059      C1060   1.391       .  A
C1060      H1064   1.083       .  S
C1065      S1071   1.709       .  A
C1065      C1070   1.388       .  A
C1065      C1066   1.400       .  A
C1066      C1067   1.402       .  A
C1066      H1077   1.083       .  S
C1067      C1076   1.366       .  A
C1067      C1068   1.387       .  A
C1068      S1074   1.712       .  A
C1068      C1069   1.402       .  A
C1069      C1070   1.404       .  A
C1069      H1078   1.083       .  S
C1070      C1073   1.369       .  A
S1071      C1072   1.719       .  A
C1072      C1073   1.385       .  A
C1073      H1079   1.083       .  S
S1074      C1075   1.721   1_565  A
C1075      C1076   1.385   1_545  A
C1076      H1080   1.083   1_565  S
C1081      S1087   1.710       .  A
C1081      C1086   1.387       .  A
C1081      C1082   1.402       .  A
C1082      C1083   1.403       .  A
C1082      H1093   1.083       .  S
C1083      C1092   1.369   1_554  A
C1083      C1084   1.388       .  A
C1084      S1090   1.706       .  A
C1084      C1085   1.399       .  A
C1085      C1086   1.401       .  A
C1085      H1094   1.083       .  S
C1086      C1089   1.366       .  A
S1087      C1088   1.720       .  A
C1088      C1089   1.383       .  A
C1089      H1095   1.083       .  S
S1090      C1091   1.718   1_554  A
C1091      C1092   1.384       .  A
C1092      H1096   1.083       .  S
C1097      S1103   1.716       .  A
C1097      C1102   1.386       .  A
C1097      C1098   1.405       .  A
C1098      C1099   1.407   1_556  A
C1098      H1109   1.083       .  S
C1099      C1108   1.373   1_455  A
C1099      C1100   1.388       .  A
C1100      S1106   1.704   1_455  A
C1100      C1101   1.397   1_554  A
C1101      C1102   1.399       .  A
C1101      H1110   1.083       .  S
C1102      C1105   1.364       .  A
S1103      C1104   1.724       .  A
C1104      C1105   1.384       .  A
C1105      H1111   1.084       .  S
S1106      C1107   1.716       .  A
C1107      C1108   1.387       .  A
C1108      H1112   1.083       .  S
C1113      S1119   1.708       .  A
C1113      C1118   1.388       .  A
C1113      C1114   1.401       .  A
C1114      C1115   1.402       .  A
C1114      H1125   1.083       .  S
C1115      C1124   1.369       .  A
C1115      C1116   1.387       .  A
C1116      S1122   1.709       .  A
C1116      C1117   1.402       .  A
C1117      C1118   1.403       .  A
C1117      H1126   1.083       .  S
C1118      C1121   1.370       .  A
S1119      C1120   1.719       .  A
C1120      C1121   1.385       .  A
C1121      H1127   1.083       .  S
S1122      C1123   1.721       .  A
C1123      C1124   1.385       .  A
C1124      H1128   1.083       .  S
C1129      S1135   1.714       .  A
C1129      C1134   1.387       .  A
C1129      C1130   1.403       .  A
C1130      C1131   1.405   1_655  A
C1130      H1141   1.083       .  S
C1131      C1140   1.370       .  A
C1131      C1132   1.388       .  A
C1132      S1138   1.708       .  A
C1132      C1133   1.398   1_455  A
C1133      C1134   1.401       .  A
C1133      H1142   1.083       .  S
C1134      C1137   1.365       .  A
S1135      C1136   1.722       .  A
C1136      C1137   1.385       .  A
C1137      H1143   1.084       .  S
S1138      C1139   1.718       .  A
C1139      C1140   1.386       .  A
C1140      H1144   1.083       .  S
C1145      S1151   1.717       .  A
C1145      C1150   1.386       .  A
C1145      C1146   1.407       .  A
C1146      C1147   1.408       .  A
C1146      H1157   1.083       .  S
C1147      C1156   1.375       .  A
C1147      C1148   1.388       .  A
C1148      S1154   1.707       .  A
C1148      C1149   1.399       .  A
C1149      C1150   1.401       .  A
C1149      H1158   1.083       .  S
C1150      C1153   1.367       .  A
S1151      C1152   1.725       .  A
C1152      C1153   1.386       .  A
C1153      H1159   1.083       .  S
S1154      C1155   1.718       .  A
C1155      C1156   1.388       .  A
C1156      H1160   1.083       .  S
C1161      S1167   1.712       .  A
C1161      C1166   1.387       .  A
C1161      C1162   1.408       .  A
C1162      C1163   1.407       .  A
C1162      H1173   1.083       .  S
C1163      C1172   1.380       .  A
C1163      C1164   1.387       .  A
C1164      S1170   1.706       .  A
C1164      C1165   1.403       .  A
C1165      C1166   1.403       .  A
C1165      H1174   1.083       .  S
C1166      C1169   1.375       .  A
S1167      C1168   1.725       .  A
C1168      C1169   1.385       .  A
C1169      H1175   1.083       .  S
S1170      C1171   1.724       .  A
C1171      C1172   1.390       .  A
C1172      H1176   1.083       .  S
C1177      S1183   1.706       .  A
C1177      C1182   1.387       .  A
C1177      C1178   1.401       .  A
C1178      C1179   1.402       .  A
C1178      H1189   1.083       .  S
C1179      C1188   1.371       .  A
C1179      C1180   1.387       .  A
C1180      S1186   1.710       .  A
C1180      C1181   1.405       .  A
C1181      C1182   1.405       .  A
C1181      H1190   1.083       .  S
C1182      C1185   1.375       .  A
S1183      C1184   1.722       .  A
C1184      C1185   1.387       .  A
C1185      H1191   1.083       .  S
S1186      C1187   1.723       .  A
C1187      C1188   1.384       .  A
C1188      H1192   1.083       .  S
C1193      S1199   1.723       .  A
C1193      C1198   1.385       .  A
C1193      C1194   1.412       .  A
C1194      C1195   1.413       .  A
C1194      H1205   1.083       .  S
C1195      C1204   1.380       .  A
C1195      C1196   1.388       .  A
C1196      S1202   1.697       .  A
C1196      C1197   1.391       .  A
C1197      C1198   1.394       .  A
C1197      H1206   1.083       .  S
C1198      C1201   1.359       .  A
S1199      C1200   1.730       .  A
C1200      C1201   1.383       .  A
C1201      H1207   1.084       .  S
S1202      C1203   1.713       .  A
C1203      C1204   1.390       .  A
C1204      H1208   1.083       .  S
C1209      S1215   1.709       .  A
C1209      C1214   1.387       .  A
C1209      C1210   1.406       .  A
C1210      C1211   1.406       .  A
C1210      H1221   1.083       .  S
C1211      C1220   1.377       .  A
C1211      C1212   1.387       .  A
C1212      S1218   1.699       .  A
C1212      C1213   1.398       .  A
C1213      C1214   1.398       .  A
C1213      H1222   1.083       .  S
C1214      C1217   1.369       .  A
S1215      C1216   1.727       .  A
C1216      C1217   1.384       .  A
C1217      H1223   1.083       .  S
S1218      C1219   1.722       .  A
C1219      C1220   1.389       .  A
C1220      H1224   1.083       .  S
C1225      S1231   1.710       .  A
C1225      C1230   1.387       .  A
C1225      C1226   1.401       .  A
C1226      C1227   1.403       .  A
C1226      H1237   1.083       .  S
C1227      C1236   1.369       .  A
C1227      C1228   1.386       .  A
C1228      S1234   1.718       .  A
C1228      C1229   1.407       .  A
C1229      C1230   1.409       .  A
C1229      H1238   1.083       .  S
C1230      C1233   1.375       .  A
S1231      C1232   1.719       .  A
C1232      C1233   1.390       .  A
C1233      H1239   1.083       .  S
S1234      C1235   1.726       .  A
C1235      C1236   1.388       .  A
C1236      H1240   1.083       .  S
C1241      S1247   1.713       .  A
C1241      C1246   1.387       .  A
C1241      C1242   1.407       .  A
C1242      C1243   1.407       .  A
C1242      H1253   1.083       .  S
C1243      C1252   1.378       .  A
C1243      C1244   1.388       .  A
C1244      S1250   1.697       .  A
C1244      C1245   1.396       .  A
C1245      C1246   1.397       .  A
C1245      H1254   1.083       .  S
C1246      C1249   1.366       .  A
S1247      C1248   1.724       .  A
C1248      C1249   1.380       .  A
C1249      H1255   1.084       .  S
S1250      C1251   1.722       .  A
C1251      C1252   1.389       .  A
C1252      H1256   1.083       .  S
C1257      S1263   1.704       .  A
C1257      C1262   1.388       .  A
C1257      C1258   1.402       .  A
C1258      C1259   1.401       .  A
C1258      H1269   1.083       .  S
C1259      C1268   1.373       .  A
C1259      C1260   1.388       .  A
C1260      S1266   1.709       .  A
C1260      C1261   1.405       .  A
C1261      C1262   1.405       .  A
C1261      H1270   1.083       .  S
C1262      C1265   1.377       .  A
S1263      C1264   1.723       .  A
C1264      C1265   1.388       .  A
C1265      H1271   1.083       .  S
S1266      C1267   1.722       .  A
C1267      C1268   1.384       .  A
C1268      H1272   1.083       .  S
C1273      S1279   1.706       .  A
C1273      C1278   1.388       .  A
C1273      C1274   1.402       .  A
C1274      C1275   1.402       .  A
C1274      H1285   1.083       .  S
C1275      C1284   1.373       .  A
C1275      C1276   1.388       .  A
C1276      S1282   1.704       .  A
C1276      C1277   1.401       .  A
C1277      C1278   1.401       .  A
C1277      H1286   1.083       .  S
C1278      C1281   1.371       .  A
S1279      C1280   1.721       .  A
C1280      C1281   1.383       .  A
C1281      H1287   1.083       .  S
S1282      C1283   1.721       .  A
C1283      C1284   1.384       .  A
C1284      H1288   1.083       .  S
C1289      S1295   1.713       .  A
C1289      C1294   1.387       .  A
C1289      C1290   1.404       .  A
C1290      C1291   1.406       .  A
C1290      H1301   1.083       .  S
C1291      C1300   1.373       .  A
C1291      C1292   1.388       .  A
C1292      S1298   1.706       .  A
C1292      C1293   1.399       .  A
C1293      C1294   1.401       .  A
C1293      H1302   1.083       .  S
C1294      C1297   1.367       .  A
S1295      C1296   1.723       .  A
C1296      C1297   1.385       .  A
C1297      H1303   1.083       .  S
S1298      C1299   1.718       .  A
C1299      C1300   1.386       .  A
C1300      H1304   1.083       .  S
C1305      S1311   1.711       .  A
C1305      C1310   1.387       .  A
C1305      C1306   1.402       .  A
C1306      C1307   1.404       .  A
C1306      H1317   1.083       .  S
C1307      C1316   1.370       .  A
C1307      C1308   1.386       .  A
C1308      S1314   1.714       .  A
C1308      C1309   1.404       .  A
C1309      C1310   1.405       .  A
C1309      H1318   1.083       .  S
C1310      C1313   1.372       .  A
S1311      C1312   1.720       .  A
C1312      C1313   1.386       .  A
C1313      H1319   1.083       .  S
S1314      C1315   1.723       .  A
C1315      C1316   1.388       .  A
C1316      H1320   1.083       .  S
C1321      S1327   1.710       .  A
C1321      C1326   1.387       .  A
C1321      C1322   1.401       .  A
C1322      C1323   1.403       .  A
C1322      H1333   1.083       .  S
C1323      C1332   1.369       .  A
C1323      C1324   1.387       .  A
C1324      S1330   1.715       .  A
C1324      C1325   1.405       .  A
C1325      C1326   1.407       .  A
C1325      H1334   1.083       .  S
C1326      C1329   1.374       .  A
S1327      C1328   1.721       .  A
C1328      C1329   1.389       .  A
C1329      H1335   1.083       .  S
S1330      C1331   1.723       .  A
C1331      C1332   1.385       .  A
C1332      H1336   1.083       .  S
C1337      S1343   1.704       .  A
C1337      C1342   1.388       .  A
C1337      C1338   1.399       .  A
C1338      C1339   1.400       .  A
C1338      H1349   1.083       .  S
C1339      C1348   1.367       .  A
C1339      C1340   1.387       .  A
C1340      S1346   1.708       .  A
C1340      C1341   1.402       .  A
C1341      C1342   1.403       .  A
C1341      H1350   1.083       .  S
C1342      C1345   1.371       .  A
S1343      C1344   1.717       .  A
C1344      C1345   1.384       .  A
C1345      H1351   1.083       .  S
S1346      C1347   1.722       .  A
C1347      C1348   1.385       .  A
C1348      H1352   1.083       .  S
C1353      S1359   1.710       .  A
C1353      C1358   1.387       .  A
C1353      C1354   1.405       .  A
C1354      C1355   1.405       .  A
C1354      H1365   1.083       .  S
C1355      C1364   1.376       .  A
C1355      C1356   1.388       .  A
C1356      S1362   1.704       .  A
C1356      C1357   1.400       .  A
C1357      C1358   1.401       .  A
C1357      H1366   1.083       .  S
C1358      C1361   1.371       .  A
S1359      C1360   1.724       .  A
C1360      C1361   1.383       .  A
C1361      H1367   1.083       .  S
S1362      C1363   1.721       .  A
C1363      C1364   1.387       .  A
C1364      H1368   1.083       .  S
C1369      S1375   1.712       .  A
C1369      C1374   1.387       .  A
C1369      C1370   1.403       .  A
C1370      C1371   1.405       .  A
C1370      H1381   1.083       .  S
C1371      C1380   1.372       .  A
C1371      C1372   1.388       .  A
C1372      S1378   1.704       .  A
C1372      C1373   1.399       .  A
C1373      C1374   1.400       .  A
C1373      H1382   1.083       .  S
C1374      C1377   1.366       .  A
S1375      C1376   1.722       .  A
C1376      C1377   1.384       .  A
C1377      H1383   1.084       .  S
S1378      C1379   1.718       .  A
C1379      C1380   1.386       .  A
C1380      H1384   1.083       .  S
C1385      S1391   1.712   1_565  A
C1385      C1390   1.387       .  A
C1385      C1386   1.403       .  A
C1386      C1387   1.405       .  A
C1386      H1397   1.083       .  S
C1387      C1396   1.370       .  A
C1387      C1388   1.387       .  A
C1388      S1394   1.708       .  A
C1388      C1389   1.399       .  A
C1389      C1390   1.401       .  A
C1389      H1398   1.083       .  S
C1390      C1393   1.367       .  A
S1391      C1392   1.721       .  A
C1392      C1393   1.384   1_545  A
C1393      H1399   1.083       .  S
S1394      C1395   1.719       .  A
C1395      C1396   1.387       .  A
C1396      H1400   1.083       .  S
C1401      S1407   1.713       .  A
C1401      C1406   1.386       .  A
C1401      C1402   1.406       .  A
C1402      C1403   1.406       .  A
C1402      H1413   1.083       .  S
C1403      C1412   1.375       .  A
C1403      C1404   1.388       .  A
C1404      S1410   1.706       .  A
C1404      C1405   1.400       .  A
C1405      C1406   1.401       .  A
C1405      H1414   1.083       .  S
C1406      C1409   1.370       .  A
S1407      C1408   1.725       .  A
C1408      C1409   1.387       .  A
C1409      H1415   1.083       .  S
S1410      C1411   1.718       .  A
C1411      C1412   1.386       .  A
C1412      H1416   1.083       .  S
C1417      S1423   1.713       .  A
C1417      C1422   1.386       .  A
C1417      C1418   1.405       .  A
C1418      C1419   1.406       .  A
C1418      H1429   1.083       .  S
C1419      C1428   1.374       .  A
C1419      C1420   1.386       .  A
C1420      S1426   1.711       .  A
C1420      C1421   1.403       .  A
C1421      C1422   1.405       .  A
C1421      H1430   1.083       .  S
C1422      C1425   1.372       .  A
S1423      C1424   1.725       .  A
C1424      C1425   1.389       .  A
C1425      H1431   1.083       .  S
S1426      C1427   1.724       .  A
C1427      C1428   1.390       .  A
C1428      H1432   1.083       .  S
C1433      S1439   1.711       .  A
C1433      C1438   1.387       .  A
C1433      C1434   1.401       .  A
C1434      C1435   1.403       .  A
C1434      H1445   1.083       .  S
C1435      C1444   1.367       .  A
C1435      C1436   1.387       .  A
C1436      S1442   1.710       .  A
C1436      C1437   1.399       .  A
C1437      C1438   1.402       .  A
C1437      H1446   1.083       .  S
C1438      C1441   1.366       .  A
S1439      C1440   1.720       .  A
C1440      C1441   1.384       .  A
C1441      H1447   1.083       .  S
S1442      C1443   1.719       .  A
C1443      C1444   1.386       .  A
C1444      H1448   1.083       .  S
C1449      S1455   1.710       .  A
C1449      C1454   1.387       .  A
C1449      C1450   1.402       .  A
C1450      C1451   1.403       .  A
C1450      H1461   1.083       .  S
C1451      C1460   1.371       .  A
C1451      C1452   1.388       .  A
C1452      S1458   1.708       .  A
C1452      C1453   1.401       .  A
C1453      C1454   1.402       .  A
C1453      H1462   1.083       .  S
C1454      C1457   1.369       .  A
S1455      C1456   1.721       .  A
C1456      C1457   1.385       .  A
C1457      H1463   1.083       .  S
S1458      C1459   1.719       .  A
C1459      C1460   1.385       .  A
C1460      H1464   1.083       .  S
C1465      S1471   1.710       .  A
C1465      C1470   1.386       .  A
C1465      C1466   1.401   1_655  A
C1466      C1467   1.403   1_456  A
C1466      H1477   1.083       .  S
C1467      C1476   1.368   1_655  A
C1467      C1468   1.386       .  A
C1468      S1474   1.713       .  A
C1468      C1469   1.402       .  A
C1469      C1470   1.405   1_554  A
C1469      H1478   1.083       .  S
C1470      C1473   1.370       .  A
S1471      C1472   1.723       .  A
C1472      C1473   1.389       .  A
C1473      H1479   1.083       .  S
S1474      C1475   1.723   1_655  A
C1475      C1476   1.389       .  A
C1476      H1480   1.083       .  S
C1481      S1487   1.713       .  A
C1481      C1486   1.387       .  A
C1481      C1482   1.405       .  A
C1482      C1483   1.406       .  A
C1482      H1493   1.083       .  S
C1483      C1492   1.375   1_556  A
C1483      C1484   1.387       .  A
C1484      S1490   1.707   1_556  A
C1484      C1485   1.401       .  A
C1485      C1486   1.402       .  A
C1485      H1494   1.083       .  S
C1486      C1489   1.369       .  A
S1487      C1488   1.723       .  A
C1488      C1489   1.386       .  A
C1489      H1495   1.083       .  S
S1490      C1491   1.720       .  A
C1491      C1492   1.387       .  A
C1492      H1496   1.083       .  S
C1497      S1503   1.702       .  A
C1497      C1502   1.387       .  A
C1497      C1498   1.400       .  A
C1498      C1499   1.399       .  A
C1498      H1509   1.083       .  S
C1499      C1508   1.370       .  A
C1499      C1500   1.387       .  A
C1500      S1506   1.708       .  A
C1500      C1501   1.404       .  A
C1501      C1502   1.404       .  A
C1501      H1510   1.083       .  S
C1502      C1505   1.375       .  A
S1503      C1504   1.723       .  A
C1504      C1505   1.388       .  A
C1505      H1511   1.083       .  S
S1506      C1507   1.726       .  A
C1507      C1508   1.385       .  A
C1508      H1512   1.083       .  S
C1513      S1519   1.713   1_655  A
C1513      C1518   1.387       .  A
C1513      C1514   1.401       .  A
C1514      C1515   1.403       .  A
C1514      H1525   1.083       .  S
C1515      C1524   1.366       .  A
C1515      C1516   1.387       .  A
C1516      S1522   1.713       .  A
C1516      C1517   1.401       .  A
C1517      C1518   1.404       .  A
C1517      H1526   1.083       .  S
C1518      C1521   1.367       .  A
S1519      C1520   1.720       .  A
C1520      C1521   1.385   1_455  A
C1521      H1527   1.084       .  S
S1522      C1523   1.721       .  A
C1523      C1524   1.387       .  A
C1524      H1528   1.083       .  S
C1529      S1535   1.710       .  A
C1529      C1534   1.387       .  A
C1529      C1530   1.402       .  A
C1530      C1531   1.403       .  A
C1530      H1541   1.083       .  S
C1531      C1540   1.370       .  A
C1531      C1532   1.388       .  A
C1532      S1538   1.707       .  A
C1532      C1533   1.400       .  A
C1533      C1534   1.402       .  A
C1533      H1542   1.083   1_554  S
C1534      C1537   1.367   1_554  A
S1535      C1536   1.721   1_554  A
C1536      C1537   1.386       .  A
C1537      H1543   1.083       .  S
S1538      C1539   1.719       .  A
C1539      C1540   1.384       .  A
C1540      H1544   1.083       .  S
C1545      S1551   1.705       .  A
C1545      C1550   1.388       .  A
C1545      C1546   1.401       .  A
C1546      C1547   1.401       .  A
C1546      H1557   1.083       .  S
C1547      C1556   1.372       .  A
C1547      C1548   1.388       .  A
C1548      S1554   1.706       .  A
C1548      C1549   1.403       .  A
C1549      C1550   1.403       .  A
C1549      H1558   1.083       .  S
C1550      C1553   1.373       .  A
S1551      C1552   1.721       .  A
C1552      C1553   1.385       .  A
C1553      H1559   1.083       .  S
S1554      C1555   1.723       .  A
C1555      C1556   1.383       .  A
C1556      H1560   1.083       .  S
C1561      S1567   1.710       .  A
C1561      C1566   1.387       .  A
C1561      C1562   1.402       .  A
C1562      C1563   1.404       .  A
C1562      H1573   1.083       .  S
C1563      C1572   1.372       .  A
C1563      C1564   1.387       .  A
C1564      S1570   1.713       .  A
C1564      C1565   1.404       .  A
C1565      C1566   1.406       .  A
C1565      H1574   1.083       .  S
C1566      C1569   1.373       .  A
S1567      C1568   1.721       .  A
C1568      C1569   1.389       .  A
C1569      H1575   1.083       .  S
S1570      C1571   1.723       .  A
C1571      C1572   1.386       .  A
C1572      H1576   1.083       .  S
C1577      S1583   1.704       .  A
C1577      C1582   1.387       .  A
C1577      C1578   1.404       .  A
C1578      C1579   1.403       .  A
C1578      H1589   1.083       .  S
C1579      C1588   1.376       .  A
C1579      C1580   1.387   1_565  A
C1580      S1586   1.707       .  A
C1580      C1581   1.405       .  A
C1581      C1582   1.404   1_545  A
C1581      H1590   1.083       .  S
C1582      C1585   1.378       .  A
S1583      C1584   1.725       .  A
C1584      C1585   1.389       .  A
C1585      H1591   1.083       .  S
S1586      C1587   1.726       .  A
C1587      C1588   1.388   1_545  A
C1588      H1592   1.083       .  S
C1593      S1599   1.704       .  A
C1593      C1598   1.388       .  A
C1593      C1594   1.396       .  A
C1594      C1595   1.398       .  A
C1594      H1605   1.084       .  S
C1595      C1604   1.362       .  A
C1595      C1596   1.386       .  A
C1596      S1602   1.717       .  A
C1596      C1597   1.406       .  A
C1597      C1598   1.408       .  A
C1597      H1606   1.083       .  S
C1598      C1601   1.373       .  A
S1599      C1600   1.715       .  A
C1600      C1601   1.387       .  A
C1601      H1607   1.083       .  S
S1602      C1603   1.724       .  A
C1603      C1604   1.384       .  A
C1604      H1608   1.084       .  S
C1609      S1615   1.714   1_545  A
C1609      C1614   1.387   1_545  A
C1609      C1610   1.403       .  A
C1610      C1611   1.405       .  A
C1610      H1621   1.083       .  S
C1611      C1620   1.370       .  A
C1611      C1612   1.387       .  A
C1612      S1618   1.712       .  A
C1612      C1613   1.401       .  A
C1613      C1614   1.403   1_545  A
C1613      H1622   1.083   1_545  S
C1614      C1617   1.368       .  A
S1615      C1616   1.722       .  A
C1616      C1617   1.387       .  A
C1617      H1623   1.083       .  S
S1618      C1619   1.719       .  A
C1619      C1620   1.386       .  A
C1620      H1624   1.084       .  S
C1625      S1631   1.709   1_545  A
C1625      C1630   1.387       .  A
C1625      C1626   1.402       .  A
C1626      C1627   1.403       .  A
C1626      H1637   1.083       .  S
C1627      C1636   1.372       .  A
C1627      C1628   1.387       .  A
C1628      S1634   1.709       .  A
C1628      C1629   1.403       .  A
C1629      C1630   1.404       .  A
C1629      H1638   1.083       .  S
C1630      C1633   1.371   1_545  A
S1631      C1632   1.721       .  A
C1632      C1633   1.387       .  A
C1633      H1639   1.083       .  S
S1634      C1635   1.721       .  A
C1635      C1636   1.385       .  A
C1636      H1640   1.083       .  S
C1641      S1647   1.708       .  A
C1641      C1646   1.387       .  A
C1641      C1642   1.404       .  A
C1642      C1643   1.404       .  A
C1642      H1653   1.083       .  S
C1643      C1652   1.374       .  A
C1643      C1644   1.387       .  A
C1644      S1650   1.704       .  A
C1644      C1645   1.401       .  A
C1645      C1646   1.401       .  A
C1645      H1654   1.083       .  S
C1646      C1649   1.371       .  A
S1647      C1648   1.725       .  A
C1648      C1649   1.386       .  A
C1649      H1655   1.083       .  S
S1650      C1651   1.724       .  A
C1651      C1652   1.388       .  A
C1652      H1656   1.083       .  S
