geometry optimzed in LAMMPS
_audit_creation_date              2020-12-01 
_audit_creation_method            'lammps2cif' 
_symmetry_space_group_name_H-M    'P1' 
_symmetry_Int_Tables_number       1 
_symmetry_cell_setting            triclinic 
loop_ 
_symmetry_equiv_pos_as_xyz 
  x,y,z 
_cell_length_a                    43.53325356 
_cell_length_b                    43.51085758458727 
_cell_length_c                    27.698466507484852 
_cell_angle_alpha                 90.02658177120121 
_cell_angle_beta                  89.9800572339401 
_cell_angle_gamma                 120.09248282525759 
loop_ 
_atom_site_label 
_atom_site_type_symbol 
_atom_site_fract_x 
_atom_site_fract_y 
_atom_site_fract_z 
_atom_site_charge 
O1          O  0.32102827  0.34291708  0.35296106    -0.72000
O2          O  0.40795231  0.43033957  0.35601923    -0.72200
O3          O  0.35182618  0.40107625  0.29716368    -0.72100
O4          O  0.37781352  0.37248455  0.41226866    -0.72100
O5          O  0.40349175  0.34974304  0.37009214    -0.72100
O6          O  0.37600426  0.37684123  0.25478864    -0.72100
O7          O  0.43295237  0.40698703  0.31325320    -0.72000
O8          O  0.34621369  0.31911135  0.31178310    -0.72200
V9          V  0.36504865  0.38610401  0.35386779     1.35200
V10         V  0.38907283  0.36351751  0.31326053     1.35200
C11         C  0.31873723  0.31614126  0.33169928     0.77200
C12         C  0.43511577  0.43357106  0.33487890     0.77300
C13         C  0.35989636  0.39424896  0.25627921     0.77100
C14         C  0.39608928  0.35728901  0.41098120     0.77100
O15         O  0.15458226  0.18311934  0.31079411    -0.72000
O16         O  0.06813254  0.09472705  0.31451321    -0.72200
O17         O  0.09734388  0.15323966  0.36953045    -0.72100
O18         O  0.12449447  0.12410998  0.25573442    -0.72100
O19         O  0.14783893  0.09977296  0.29965471    -0.72100
O20         O  0.12443557  0.13274224  0.41311913    -0.72100
O21         O  0.09309857  0.07329461  0.36039474    -0.72000
O22         O  0.18017562  0.15991611  0.35210341    -0.72200
V23         V  0.11175321  0.13855525  0.31349545     1.35200
V24         V  0.13606429  0.11706409  0.35549509     1.35200
C25         C  0.18234667  0.18646322  0.33035289     0.77200
C26         C  0.06586824  0.06874073  0.33809574     0.77300
C27         C  0.10520162  0.14689978  0.41083881     0.77100
C28         C  0.13909900  0.10533676  0.25847421     0.77100
O29         O  0.47983746  0.32339663  0.68758543    -0.72000
O30         O  0.48036880  0.41049162  0.68144095    -0.72200
O31         O  0.45377873  0.35250013  0.62619169    -0.75100
O32         O  0.50670240  0.38213693  0.74258387    -0.72100
O33         O  0.05540459  0.40265193  0.70469064    -0.72100
O34         O  0.00289509  0.37423012  0.58802816    -0.72100
O35         O  0.03015924  0.43230598  0.64354188    -0.72000
O36         O  0.02789946  0.34383342  0.64952934    -0.72200
V37         V  0.48116287  0.36748644  0.68366826     1.35200
V38         V  0.02815041  0.38766080  0.64718938     1.35200
C39         C  0.00278281  0.31740604  0.67079341     0.77200
C40         C  0.00550851  0.43562296  0.66243403     0.77300
C41         C  0.46922716  0.35947384  0.58565501     0.77100
C42         C  0.03991691  0.39735156  0.74492002     0.77100
O43         O  0.02775162  0.18105917  0.69484375    -0.72000
O44         O  0.02825720  0.09428128  0.68612409    -0.72200
O45         O  0.05444741  0.15312482  0.63259531    -0.72100
O46         O  0.00128546  0.12155683  0.74878522    -0.72100
O47         O  0.45432302  0.10082043  0.70637768    -0.72100
O48         O  0.50936017  0.13337432  0.59187301    -0.72100
O49         O  0.48234356  0.07409407  0.64494980    -0.72000
O50         O  0.48153751  0.16087720  0.65334344    -0.72200
V51         V  0.02692443  0.13714538  0.68989456     1.35200
V52         V  0.48282198  0.11788489  0.64996350     1.35200
C53         C  0.00351565  0.18455178  0.67511440     0.77200
C54         C  0.00389194  0.06790971  0.66401566     0.77300
C55         C  0.03918422  0.14576028  0.59199983     0.77100
C56         C  0.46906577  0.10672471  0.74731241     0.77100
O57         O  0.33987946  0.02260705  0.01669201    -0.72000
O58         O  0.42846286  0.02558265  0.01993547    -0.72200
O59         O  0.39723487  0.04872937  0.95891727    -0.72100
O60         O  0.37185687  0.99947316  0.07819900    -0.72100
O61         O  0.34931103  0.44848444  0.04054222    -0.72100
O62         O  0.37631793  0.50027143  0.92238789    -0.72100
O63         O  0.40572117  0.47380590  0.98205999    -0.72000
O64         O  0.31897032  0.47460845  0.98087030    -0.72200
V65         V  0.38370005  0.02308452  0.01770818     1.35200
V66         V  0.36289853  0.47524751  0.98218023     1.35200
C67         C  0.31312847  0.99736537  0.99622938     0.77200
C68         C  0.43139509  0.00032061  0.00261551     0.77300
C69         C  0.39198292  0.03231182  0.91937794     0.77100
C70         C  0.35805803  0.46456654  0.08069366     0.77100
O71         O  0.15894755  0.48096742  0.01993154    -0.72000
O72         O  0.07260537  0.48258527  0.02120895    -0.72200
O73         O  0.10061740  0.45360055  0.96408917    -0.72100
O74         O  0.13013423  0.50988442  0.07742841    -0.72100
O75         O  0.14856757  0.05141208  0.04017918    -0.72100
O76         O  0.11986516  0.99839654  0.92355625    -0.72100
O77         O  0.09094572  0.02471544  0.98462311    -0.72000
O78         O  0.17832184  0.02527422  0.97935395    -0.72200
V79         V  0.11622059  0.48268539  0.01981613     1.35200
V80         V  0.13412025  0.02397881  0.98266086     1.35200
C81         C  0.18157008  0.00075579  0.99870160     0.77200
C82         C  0.06447918  0.00040848  0.00663268     0.77300
C83         C  0.10755874  0.46777620  0.92280175     0.77100
C84         C  0.14030737  0.03604509  0.08070991     0.77100
C85         C  0.00629676  0.47811749  0.02320752    -0.20500
C86         C  0.03048713  0.00034875  0.00940919    -0.07100
C87         C  0.02888366  0.03203149  0.01158826     0.13800
C88         C  0.99564506  0.02994346  0.01146744    -0.20600
C89         C  0.46557320  0.00128865  0.00382608    -0.07100
C90         C  0.46913366  0.46751765  0.00730993     0.13700
C91         C  0.43645936  0.43167408  0.01485053    -0.23900
H92         H  0.00934514  0.45745115  0.04042852     0.15000
H93         H  0.99445634  0.05423666  0.01200569     0.15100
C94         C  0.06188627  0.06806309  0.01561426    -0.23900
H95         H  0.44329087  0.41059779  0.02118655     0.05300
H96         H  0.41926719  0.42400310  0.98236810     0.08500
H97         H  0.42148661  0.43256718  0.04678708     0.08500
H98         H  0.07801603  0.07417991  0.98225820     0.08500
H99         H  0.07779526  0.06854821  0.04725583     0.08500
H100        H  0.05539462  0.08950883  0.02059019     0.05300
C101        C  0.27999911  0.02993912  0.99803153    -0.20500
C102        C  0.27888661  0.99717296  0.99462430    -0.07100
C103        C  0.24895946  0.46879587  0.99929210     0.13800
C104        C  0.21820197  0.47161025  0.99927029    -0.20600
C105        C  0.21552110  0.00057383  0.99631509    -0.07100
C106        C  0.24892606  0.03212770  0.99865183     0.13700
C107        C  0.25220447  0.06817242  0.00362177    -0.23900
H108        H  0.30550032  0.05419423  0.00023835     0.15000
H109        H  0.19240453  0.44762414  0.99848861     0.15100
C110        C  0.24486949  0.43226599  0.99991645    -0.23900
H111        H  0.28028583  0.08959558  0.00778556     0.05300
H112        H  0.23737336  0.06864845  0.03597602     0.08500
H113        H  0.24159083  0.07430948  0.97089302     0.08500
H114        H  0.25878346  0.42953969  0.03180025     0.08500
H115        H  0.25593838  0.42778144  0.96630491     0.08500
H116        H  0.21655967  0.41103888  0.00209500     0.05300
C117        C  0.41520292  0.05824298  0.78686891    -0.20500
C118        C  0.44758577  0.09037773  0.79155639    -0.07100
C119        C  0.45935887  0.10465141  0.83827372     0.13800
C120        C  0.43944299  0.08569723  0.87869364    -0.20600
C121        C  0.40833401  0.05244800  0.87423072    -0.07100
C122        C  0.39561706  0.03891604  0.82746670     0.13700
C123        C  0.36150393  0.00434790  0.81979754    -0.23900
H124        H  0.40583329  0.04732930  0.75118181     0.15000
H125        H  0.44923822  0.09637086  0.91435611     0.15100
C126        C  0.49275679  0.13984531  0.84623249    -0.23900
H127        H  0.35451632  0.99920489  0.78091951     0.05300
H128        H  0.34043614  0.51041409  0.84389947     0.08500
H129        H  0.36414448  0.98187382  0.83367881     0.08500
H130        H  0.49157101  0.16085342  0.82496521     0.08500
H131        H  0.51636457  0.13807611  0.83546029     0.08500
H132        H  0.49628090  0.14794568  0.88479123     0.05300
C133        C  0.04079548  0.40170884  0.83409252    -0.20500
C134        C  0.05996148  0.41237414  0.79059895    -0.07100
C135        C  0.09634975  0.43929709  0.79194736     0.13800
C136        C  0.11160615  0.45584279  0.83611373    -0.20600
C137        C  0.09178004  0.44615894  0.87893083    -0.07100
C138        C  0.05600457  0.41831814  0.87800847     0.13700
C139        C  0.03280935  0.40737973  0.92244504    -0.23900
H140        H  0.01312460  0.38102292  0.83361572     0.15000
H141        H  0.13902164  0.47715953  0.83708795     0.15100
C142        C  0.11922507  0.45185059  0.74728693    -0.23900
H143        H  0.00506877  0.38650221  0.91435208     0.05300
H144        H  0.02839280  0.91050987  0.94302575     0.08500
H145        H  0.04325331  0.39643641  0.94993537     0.08500
H146        H  0.10830820  0.46329355  0.72122939     0.08500
H147        H  0.12045760  0.42932437  0.73047489     0.08500
H148        H  0.14688666  0.47280859  0.75564381     0.05300
C149        C  0.03450662  0.28338300  0.67096742    -0.20500
C150        C  0.00208423  0.28296503  0.67358647    -0.07100
C151        C  0.47237032  0.25255303  0.67129773     0.13800
C152        C  0.47415124  0.22122554  0.67264688    -0.20600
C153        C  0.00408580  0.21888889  0.67627774    -0.07100
C154        C  0.03600172  0.25192160  0.67259398     0.13700
C155        C  0.07169314  0.25432845  0.66856258    -0.23900
H156        H  0.05898623  0.30860039  0.66779802     0.15000
H157        H  0.44975164  0.19579071  0.67173266     0.15100
C158        C  0.43638455  0.24954589  0.66769134    -0.23900
H159        H  0.09347940  0.28213448  0.66331629     0.05300
H160        H  0.07182310  0.23849046  0.63718817     0.08500
H161        H  0.07752533  0.24430700  0.70213978     0.08500
H162        H  0.43526244  0.26380294  0.63509292     0.08500
H163        H  0.43116500  0.26090414  0.70044864     0.08500
H164        H  0.41470391  0.22146045  0.66483011     0.05300
C165        C  0.03330559  0.99924452  0.65291811    -0.20500
C166        C  0.00571282  0.46963270  0.66034942    -0.07100
C167        C  0.47242720  0.47246253  0.66408345     0.13800
C168        C  0.47386024  0.00528040  0.65220512    -0.20600
C169        C  0.00382124  0.03394747  0.66082024    -0.07100
C170        C  0.03518008  0.03240208  0.65356833     0.13700
C171        C  0.07044463  0.06538622  0.64451621    -0.23900
H172        H  0.05747602  0.99820151  0.64808703     0.15000
H173        H  0.45026909  0.00707107  0.64562290     0.15100
C174        C  0.43637393  0.43956364  0.66895824    -0.23900
H175        H  0.07879766  0.08294538  0.67666636     0.05300
H176        H  0.06815048  0.07965857  0.61276441     0.08500
H177        H  0.09167388  0.05901548  0.63676618     0.08500
H178        H  0.43484625  0.42549192  0.70304563     0.08500
H179        H  0.43132935  0.42173354  0.63758459     0.08500
H180        H  0.41473345  0.44603902  0.67005145     0.05300
C181        C  0.10976768  0.15961204  0.49880615    -0.20500
C182        C  0.09066844  0.15360625  0.45567460    -0.07100
C183        C  0.05646395  0.14998217  0.45746424     0.13800
C184        C  0.04148741  0.14987687  0.50242970    -0.20600
C185        C  0.05953947  0.15329796  0.54595059    -0.07100
C186        C  0.09496723  0.15991361  0.54380536     0.13700
C187        C  0.11728434  0.16625364  0.58837469    -0.23900
H188        H  0.13618743  0.16302605  0.49740216     0.15000
H189        H  0.01474541  0.14562123  0.50359360     0.15100
C190        C  0.03450505  0.14406456  0.41263910    -0.23900
H191        H  0.14424494  0.17114703  0.57941035     0.05300
H192        H  0.10469832  0.14275883  0.61242389     0.08500
H193        H  0.12053006  0.19000445  0.60786460     0.08500
H194        H  0.02997630  0.11958231  0.39385053     0.08500
H195        H  0.04834086  0.16726868  0.38817020     0.08500
H196        H  0.00810504  0.14083005  0.42114628     0.05300
C197        C  0.13417611  0.03649575  0.16987059    -0.20500
C198        C  0.14531101  0.05607122  0.12662714    -0.07100
C199        C  0.15697761  0.09302384  0.12820594     0.13800
C200        C  0.15600622  0.10864859  0.17223848    -0.20600
C201        C  0.14378326  0.08863302  0.21471935    -0.07100
C202        C  0.13280500  0.05208260  0.21354382     0.13700
C203        C  0.11721492  0.02872394  0.25739169    -0.23900
H204        H  0.12494032  0.00828081  0.16931347     0.15000
H205        H  0.16407849  0.13660906  0.17336953     0.15100
C206        C  0.16957146  0.11630063  0.08392599    -0.23900
H207        H  0.10823104  0.00045144  0.24932046     0.05300
H208        H  0.09383870  0.03017713  0.27039528     0.08500
H209        H  0.13738305  0.03740658  0.28648276     0.08500
H210        H  0.14767450  0.10719363  0.05727855     0.08500
H211        H  0.19253593  0.11559799  0.06770070     0.08500
H212        H  0.17834454  0.14444814  0.09257658     0.05300
C213        C  0.44352276  0.35168581  0.45254695    -0.20500
C214        C  0.41105008  0.35118925  0.45579464    -0.07100
C215        C  0.39561835  0.34796790  0.50185141     0.13800
C216        C  0.41440682  0.34834727  0.54323541    -0.20600
C217        C  0.44848839  0.35237137  0.54019767    -0.07100
C218        C  0.46256172  0.35253297  0.49396609     0.13700
C219        C  0.00066384  0.36154544  0.48882179    -0.23900
H220        H  0.45513578  0.35340836  0.41732329     0.15000
H221        H  0.40301841  0.34736571  0.57839146     0.15100
C222        C  0.35945869  0.34418630  0.50803474    -0.23900
H223        H  0.00680850  0.36110612  0.44998354     0.05300
H224        H  0.00211478  0.33952770  0.50686816     0.08500
H225        H  0.02135758  0.38749331  0.50348465     0.08500
H226        H  0.33967083  0.32162031  0.48591147     0.08500
H227        H  0.36011458  0.36903079  0.49715158     0.08500
H228        H  0.35046303  0.33890369  0.54621043     0.05300
C229        C  0.00055773  0.47214677  0.33091572    -0.20500
C230        C  0.46869016  0.46757037  0.33570385    -0.07100
C231        C  0.47023090  0.00286824  0.32453658     0.13800
C232        C  0.00233844  0.03141373  0.31549751    -0.20600
C233        C  0.03227756  0.03388531  0.33871796    -0.07100
C234        C  0.02937250  0.00291298  0.36056447     0.13700
C235        C  0.06606862  0.50245612  0.31562126    -0.23900
H236        H  0.99974811  0.44728032  0.32359722     0.15000
H237        H  0.00413751  0.05468648  0.29850452     0.15100
C238        C  0.43813588  0.00289953  0.30409137    -0.23900
H239        H  0.05993073  0.47494897  0.30748395     0.05300
H240        H  0.06815161  0.02145283  0.41782692     0.08500
H241        H  0.08236573  0.01063472  0.36163899     0.08500
H242        H  0.41801643  0.49073840  0.32218538     0.08500
H243        H  0.42945036  0.47971553  0.26435611     0.08500
H244        H  0.44478922  0.02952686  0.29041428     0.05300
C245        C  0.25338874  0.28454319  0.32365135    -0.20500
C246        C  0.28437983  0.28257968  0.32947085    -0.07100
C247        C  0.28172974  0.24898406  0.33381424     0.13800
C248        C  0.24806893  0.21833400  0.33345918    -0.20600
C249        C  0.21690025  0.22016524  0.32800510    -0.07100
C250        C  0.21972083  0.25384667  0.32218926     0.13700
C251        C  0.18762220  0.25800550  0.31554695    -0.23900
H252        H  0.25559139  0.31037259  0.31983767     0.15000
H253        H  0.24613264  0.19264111  0.33745067     0.15100
C254        C  0.31404222  0.24517962  0.34051369    -0.23900
H255        H  0.19495411  0.28637337  0.31336569     0.05300
H256        H  0.16921937  0.24593503  0.34654231     0.08500
H257        H  0.17386618  0.24506166  0.28140229     0.08500
H258        H  0.32918424  0.26045315  0.37273669     0.08500
H259        H  0.33121901  0.25506753  0.30802900     0.08500
H260        H  0.30678155  0.21703081  0.34586389     0.05300
C261        C  0.35591331  0.44230109  0.21447047    -0.20500
C262        C  0.35309919  0.40878982  0.21173661    -0.07100
C263        C  0.34638689  0.39156502  0.16647007     0.13800
C264        C  0.34589351  0.40967235  0.12469926    -0.20600
C265        C  0.35224484  0.44472866  0.12684327    -0.07100
C266        C  0.35585238  0.46063856  0.17283209     0.13700
C267        C  0.34954285  0.99480130  0.17650609    -0.23900
H268        H  0.36016189  0.45515073  0.24929715     0.15000
H269        H  0.34217077  0.39686651  0.08996687     0.15100
C270        C  0.33934680  0.35404579  0.16185287    -0.23900
H271        H  0.34652529  0.00045876  0.21478010     0.05300
H272        H  0.32622940  0.99186625  0.15619486     0.08500
H273        H  0.37418024  0.01800181  0.16269889     0.08500
H274        H  0.31710081  0.33623419  0.18602135     0.08500
H275        H  0.36344316  0.35282704  0.17141764     0.08500
H276        H  0.33190200  0.34389440  0.12438464     0.05300
O277        O  0.32033816  0.84625511  0.35222945    -0.72000
O278        O  0.40695383  0.93378943  0.35906816    -0.72200
O279        O  0.35234130  0.90509390  0.29751390    -0.72100
O280        O  0.37575689  0.87508093  0.41402545    -0.72100
O281        O  0.40092820  0.85151664  0.37249117    -0.72100
O282        O  0.37928666  0.88296448  0.25689432    -0.72100
O283        O  0.43350005  0.91061924  0.31942472    -0.72000
O284        O  0.34626691  0.82362980  0.31017808    -0.72200
V285        V  0.36425873  0.88949428  0.35504106     1.35200
V286        V  0.38938332  0.86754742  0.31553484     1.35200
C287        C  0.31844425  0.82008534  0.32974774     0.77200
C288        C  0.43484977  0.93716105  0.34010651     0.77300
C289        C  0.36238108  0.89953695  0.25719071     0.77100
C290        C  0.39312677  0.85888757  0.41314822     0.77100
O291        O  0.15516688  0.68537354  0.30764719    -0.72000
O292        O  0.06896339  0.59702353  0.31492748    -0.72200
O293        O  0.09963379  0.65568630  0.36908952    -0.72100
O294        O  0.12385957  0.62612185  0.25336809    -0.72100
O295        O  0.15091131  0.60453627  0.29469466    -0.72100
O296        O  0.12573881  0.63321848  0.41090975    -0.72100
O297        O  0.09587852  0.57476094  0.35554265    -0.72000
O298        O  0.18142885  0.66324593  0.34976457    -0.72200
V299        V  0.11254377  0.64075011  0.31204051     1.35200
V300        V  0.13809181  0.61951813  0.35198006     1.35200
C301        C  0.18309925  0.68938619  0.32747578     0.77200
C302        C  0.06788036  0.57075863  0.33609386     0.77300
C303        C  0.10714374  0.64812640  0.40981562     0.77100
C304        C  0.14079002  0.60949397  0.25413921     0.77100
O305        O  0.47626877  0.82124306  0.68915808    -0.72000
O306        O  0.47611153  0.90824324  0.68161975    -0.72200
O307        O  0.44946437  0.84962895  0.62751177    -0.75100
O308        O  0.50282402  0.88031653  0.74328469    -0.72100
O309        O  0.05283052  0.90302255  0.70299603    -0.72100
O310        O  0.00081011  0.87250553  0.58586600    -0.72100
O311        O  0.02610084  0.93080949  0.64116060    -0.72000
O312        O  0.02733209  0.84403798  0.64814766    -0.72200
V313        V  0.47712823  0.86518787  0.68459890     1.35200
V314        V  0.02583702  0.88699413  0.64528824     1.35200
C315        C  0.00237587  0.81709441  0.66876468     0.77200
C316        C  0.00123980  0.93353205  0.66061625     0.77300
C317        C  0.46471551  0.85734305  0.58687116     0.77100
C318        C  0.03710835  0.89704596  0.74316767     0.77100
O319        O  0.03028074  0.68259280  0.69329861    -0.72000
O320        O  0.03121560  0.59601545  0.68844612    -0.72200
O321        O  0.05724975  0.65379740  0.63272100    -0.72100
O322        O  0.00394618  0.62410252  0.74914032    -0.72100
O323        O  0.45502058  0.60159951  0.70837035    -0.72100
O324        O  0.50819466  0.63258556  0.59204178    -0.72100
O325        O  0.48176638  0.57403538  0.64609737    -0.72000
O326        O  0.48136767  0.66076761  0.65408676    -0.72200
V327        V  0.02967026  0.63874944  0.69020016     1.35200
V328        V  0.48255208  0.61785406  0.65097532     1.35200
C329        C  0.00564698  0.68548014  0.67373785     0.77200
C330        C  0.00747114  0.56943200  0.66599795     0.77300
C331        C  0.04189617  0.64631027  0.59215507     0.77100
C332        C  0.47041606  0.60725539  0.74882613     0.77100
O333        O  0.34394323  0.52432284  0.02040927    -0.72000
O334        O  0.43067751  0.52340767  0.02202737    -0.72200
O335        O  0.40137054  0.54968088  0.96258638    -0.72100
O336        O  0.37400086  0.49810271  0.08010336    -0.72100
O337        O  0.34747300  0.94918800  0.04005751    -0.72100
O338        O  0.37497398  0.99869978  0.92037310    -0.72100
O339        O  0.40454745  0.97447015  0.98346072    -0.72000
O340        O  0.31669410  0.97294030  0.97715232    -0.72200
V341        V  0.38684373  0.52288440  0.02053482     1.35200
V342        V  0.36118756  0.97478170  0.98093147     1.35200
C343        C  0.31651435  0.49948024  0.00060726     0.77200
C344        C  0.43297386  0.49842612  0.00229745     0.77300
C345        C  0.39468296  0.53385414  0.92237007     0.77100
C346        C  0.35648506  0.96598295  0.07965443     0.77100
O347        O  0.15488763  0.97602068  0.01993695    -0.72000
O348        O  0.06753360  0.97566227  0.02564855    -0.72200
O349        O  0.09632837  0.94939143  0.96460526    -0.72100
O350        O  0.12537053  0.00247737  0.08109759    -0.72100
O351        O  0.15239351  0.55766239  0.03370534    -0.72100
O352        O  0.12676086  0.50119579  0.92003661    -0.72100
O353        O  0.09620670  0.52898914  0.97508776    -0.72000
O354        O  0.18386918  0.52998818  0.97877792    -0.72200
V355        V  0.11165585  0.97683970  0.02204330     1.35200
V356        V  0.13954251  0.52856181  0.97771606     1.35200
C357        C  0.18632512  0.50546260  0.99960473     0.77200
C358        C  0.06948143  0.50596623  0.99813210     0.77300
C359        C  0.10210729  0.96479842  0.92420276     0.77100
C360        C  0.14435756  0.54327873  0.07492455     0.77100
C361        C  0.99881154  0.96750087  0.01037861    -0.20500
C362        C  0.03527576  0.50600991  0.99878982    -0.07100
C363        C  0.03065997  0.53292758  0.97664775     0.13800
C364        C  0.99763065  0.53115539  0.98004971    -0.20600
C365        C  0.46707402  0.49875193  0.00199067    -0.07100
C366        C  0.46942595  0.97464148  0.02705654     0.13700
C367        C  0.43917009  0.94525031  0.05486548    -0.23900
H368        H  0.00003459  0.94322234  0.01004849     0.15000
H369        H  0.99382545  0.55149351  0.96316366     0.15100
C370        C  0.05986851  0.56355756  0.94911789    -0.23900
H371        H  0.44709134  0.92729782  0.07232954     0.05300
H372        H  0.41663607  0.92901611  0.03026010     0.08500
H373        H  0.43024399  0.95682340  0.08360027     0.08500
H374        H  0.06823656  0.55339872  0.91798692     0.08500
H375        H  0.08280326  0.57949405  0.97327847     0.08500
H376        H  0.05108751  0.58167797  0.93449443     0.05300
C377        C  0.28450495  0.53325817  0.00152436    -0.20500
C378        C  0.28271386  0.50011809  0.00013935    -0.07100
C379        C  0.24542056  0.96558695  0.99145957     0.13800
C380        C  0.21428169  0.96776826  0.99277139    -0.20600
C381        C  0.22004783  0.50476619  0.99968225    -0.07100
C382        C  0.25374186  0.53605395  0.00111352     0.13700
C383        C  0.25764489  0.57246084  0.00382091    -0.23900
H384        H  0.31026280  0.55727764  0.00252415     0.15000
H385        H  0.18867663  0.94360593  0.99078949     0.15100
C386        C  0.24200949  0.92941222  0.98810163    -0.23900
H387        H  0.28584641  0.59364456  0.00775207     0.05300
H388        H  0.24283304  0.57400230  0.03550763     0.08500
H389        H  0.24738846  0.57804595  0.97028258     0.08500
H390        H  0.25528257  0.92512331  0.01948636     0.08500
H391        H  0.25417167  0.92719421  0.95401984     0.08500
H392        H  0.21380632  0.90779265  0.98808365     0.05300
C393        C  0.41608331  0.56050683  0.78975550    -0.20500
C394        C  0.44947190  0.59155814  0.79376627    -0.07100
C395        C  0.46244344  0.60542443  0.84036333     0.13800
C396        C  0.44280325  0.58680917  0.88123303    -0.20600
C397        C  0.41073811  0.55433839  0.87726430    -0.07100
C398        C  0.39669176  0.54160215  0.83070020     0.13700
C399        C  0.36130230  0.50830938  0.82357914    -0.23900
H400        H  0.40565842  0.55003125  0.75423211     0.15000
H401        H  0.45351872  0.59702483  0.91674244     0.15100
C402        C  0.49682068  0.63981649  0.84771024    -0.23900
H403        H  0.35338971  0.50390898  0.78495343     0.05300
H404        H  0.33938240  0.00513784  0.83861890     0.08500
H405        H  0.36259455  0.48477334  0.83608627     0.08500
H406        H  0.49626943  0.66143476  0.82713726     0.08500
H407        H  0.51956101  0.63694140  0.83570250     0.08500
H408        H  0.50132814  0.64779301  0.88631818     0.05300
C409        C  0.04070886  0.89589009  0.83247688    -0.20500
C410        C  0.05691150  0.91245526  0.78880083    -0.07100
C411        C  0.08968423  0.94494743  0.79021407     0.13800
C412        C  0.10441997  0.96037618  0.83505612    -0.20600
C413        C  0.08746948  0.94449944  0.87869447    -0.07100
C414        C  0.05538472  0.91137015  0.87729624     0.13700
C415        C  0.03527212  0.89285421  0.92248777    -0.23900
H416        H  0.01572202  0.87100091  0.83155214     0.15000
H417        H  0.12901901  0.98564166  0.83599544     0.15100
C418        C  0.10858611  0.96465251  0.74496374    -0.23900
H419        H  0.01010775  0.86800201  0.91421860     0.05300
H420        H  0.03201075  0.43062714  0.93753406     0.08500
H421        H  0.05161199  0.88553660  0.94522462     0.08500
H422        H  0.09096538  0.97095420  0.72334261     0.08500
H423        H  0.11648786  0.94827373  0.72329362     0.08500
H424        H  0.13312128  0.99012065  0.75320814     0.05300
C425        C  0.03522323  0.78426087  0.67350942    -0.20500
C426        C  0.00244607  0.78306862  0.67118011    -0.07100
C427        C  0.46990831  0.75047724  0.67621284     0.13800
C428        C  0.47260071  0.71967696  0.67763835    -0.20600
C429        C  0.00563328  0.71960943  0.67434780    -0.07100
C430        C  0.03730421  0.75310629  0.67569816     0.13700
C431        C  0.07349550  0.75651692  0.67818607    -0.23900
H432        H  0.05946157  0.80985383  0.67414671     0.15000
H433        H  0.44857643  0.69394094  0.67935445     0.15100
C434        C  0.43345861  0.74653309  0.67648838    -0.23900
H435        H  0.09513655  0.78468725  0.67663064     0.05300
H436        H  0.07708907  0.74234408  0.64729205     0.08500
H437        H  0.07643101  0.74531601  0.71271827     0.08500
H438        H  0.42994369  0.75930155  0.64388944     0.08500
H439        H  0.42994014  0.75889864  0.70950237     0.08500
H440        H  0.41212740  0.71820339  0.67641254     0.05300
C441        C  0.03829171  0.50134880  0.66414995    -0.20500
C442        C  0.00091543  0.96749417  0.65924832    -0.07100
C443        C  0.47134763  0.97185147  0.65052067     0.13800
C444        C  0.47438658  0.50559481  0.66552954    -0.20600
C445        C  0.00814183  0.53574940  0.66309812    -0.07100
C446        C  0.03998992  0.53440643  0.66579674     0.13700
C447        C  0.07595566  0.56748886  0.66923193    -0.23900
H448        H  0.06252415  0.50019445  0.66704226     0.15000
H449        H  0.45045048  0.50683930  0.67180495     0.15100
C450        C  0.43629254  0.93966841  0.63759523    -0.23900
H451        H  0.07846575  0.58134711  0.70389223     0.05300
H452        H  0.07957459  0.58532882  0.63848391     0.08500
H453        H  0.09781266  0.56133763  0.66785937     0.08500
H454        H  0.42618594  0.92086828  0.66839801     0.08500
H455        H  0.43964820  0.92625690  0.60556240     0.08500
H456        H  0.41583681  0.94690717  0.62874663     0.05300
C457        C  0.11242122  0.66132617  0.49785839    -0.20500
C458        C  0.09271265  0.65430098  0.45510721    -0.07100
C459        C  0.05804780  0.64945504  0.45746583     0.13800
C460        C  0.04324789  0.64912719  0.50259463    -0.20600
C461        C  0.06197413  0.65372620  0.54582750    -0.07100
C462        C  0.09782386  0.66165137  0.54308748     0.13700
C463        C  0.12081542  0.66954208  0.58726151    -0.23900
H464        H  0.13919684  0.66569881  0.49594679     0.15000
H465        H  0.01617436  0.64392345  0.50408843     0.15100
C466        C  0.03548224  0.64252301  0.41302652    -0.23900
H467        H  0.14812678  0.67568368  0.57787074     0.05300
H468        H  0.10936391  0.64624948  0.61171987     0.08500
H469        H  0.12303002  0.69300850  0.60637306     0.08500
H470        H  0.03205197  0.61852457  0.39414649     0.08500
H471        H  0.04825049  0.66578456  0.38848485     0.08500
H472        H  0.00863215  0.63795011  0.42196518     0.05300
C473        C  0.15651237  0.55280794  0.16272055    -0.20500
C474        C  0.14906719  0.56426485  0.11924517    -0.07100
C475        C  0.14182596  0.59253932  0.12011349     0.13800
C476        C  0.14109164  0.60768182  0.16451926    -0.20600
C477        C  0.14707943  0.59532113  0.20844836    -0.07100
C478        C  0.15590124  0.56800716  0.20724084     0.13700
C479        C  0.16375885  0.55376847  0.25232720    -0.23900
H480        H  0.16202530  0.53111840  0.16191090     0.15000
H481        H  0.13463322  0.62871453  0.16491225     0.15100
C482        C  0.13257818  0.60549027  0.07489985    -0.23900
H483        H  0.16966939  0.53226397  0.24416901     0.05300
H484        H  0.14058261  0.54256217  0.27695442     0.08500
H485        H  0.18732554  0.57536837  0.27083702     0.08500
H486        H  0.10896059  0.58317821  0.05741953     0.08500
H487        H  0.15537978  0.61663993  0.04953019     0.08500
H488        H  0.12620530  0.62672129  0.08269805     0.05300
C489        C  0.43823387  0.84953874  0.45448911    -0.20500
C490        C  0.40699795  0.85146018  0.45798078    -0.07100
C491        C  0.39203697  0.84920605  0.50410810     0.13800
C492        C  0.41047617  0.84859627  0.54534079    -0.20600
C493        C  0.44368153  0.85060291  0.54191093    -0.07100
C494        C  0.45689045  0.84935815  0.49569111     0.13700
C495        C  0.99661549  0.85257584  0.48749555    -0.23900
H496        H  0.44935850  0.85024244  0.41922672     0.15000
H497        H  0.39970928  0.84858663  0.58062283     0.15100
C498        C  0.35682512  0.84751346  0.51049276    -0.23900
H499        H  0.00220593  0.85030141  0.44892676     0.05300
H500        H  0.99615831  0.83014986  0.50726431     0.08500
H501        H  0.01867387  0.87819383  0.50094581     0.08500
H502        H  0.33619973  0.82533078  0.48868617     0.08500
H503        H  0.35887372  0.87294438  0.49932195     0.08500
H504        H  0.34801610  0.84286323  0.54876798     0.05300
C505        C  0.99702273  0.97080666  0.35799920    -0.20500
C506        C  0.46822294  0.97138599  0.34159376    -0.07100
C507        C  0.47106249  0.49891740  0.31754016     0.13800
C508        C  0.00302275  0.53640130  0.34875956    -0.20600
C509        C  0.03449454  0.53637510  0.33839293    -0.07100
C510        C  0.03329773  0.50384237  0.32938228     0.13700
C511        C  0.05975945  0.00287998  0.38671671    -0.23900
H512        H  0.99452244  0.94705613  0.37451481     0.15000
H513        H  0.00412149  0.56145567  0.35542830     0.15100
C514        C  0.43943261  0.49871470  0.29502027    -0.23900
H515        H  0.05220832  0.97620936  0.40123164     0.05300
H516        H  0.08554838  0.51255097  0.34565129     0.08500
H517        H  0.07803690  0.51881458  0.28282030     0.08500
H518        H  0.41755523  0.99522496  0.33245100     0.08500
H519        H  0.42711130  0.98382785  0.27357679     0.08500
H520        H  0.44624816  0.52531550  0.28104007     0.05300
C521        C  0.25300778  0.78786192  0.32112384    -0.20500
C522        C  0.28430318  0.78636369  0.32640068    -0.07100
C523        C  0.28217558  0.75296273  0.32999746     0.13800
C524        C  0.24876852  0.72203108  0.32941271    -0.20600
C525        C  0.21731202  0.72338133  0.32477056    -0.07100
C526        C  0.21954559  0.75685106  0.31968007     0.13700
C527        C  0.18701336  0.76040330  0.31412144    -0.23900
H528        H  0.25479272  0.81354751  0.31802805     0.15000
H529        H  0.24724043  0.69648644  0.33283628     0.15100
C530        C  0.31478688  0.74963738  0.33645252    -0.23900
H531        H  0.19387131  0.78865333  0.31252657     0.05300
H532        H  0.16893907  0.74787270  0.34531985     0.08500
H533        H  0.17305497  0.74753745  0.28005251     0.08500
H534        H  0.32971928  0.76471849  0.36891039     0.08500
H535        H  0.33202070  0.76001219  0.30407727     0.08500
H536        H  0.30791099  0.72155785  0.34129557     0.05300
C537        C  0.35322305  0.94426985  0.21377482    -0.20500
C538        C  0.35602613  0.91349797  0.21167450    -0.07100
C539        C  0.35455141  0.89801533  0.16609114     0.13800
C540        C  0.35227831  0.91473362  0.12407710    -0.20600
C541        C  0.35225105  0.94697770  0.12592744    -0.07100
C542        C  0.35171174  0.96142570  0.17159193     0.13700
C543        C  0.36011636  0.49703509  0.17894489    -0.23900
H544        H  0.35386033  0.95593457  0.24858134     0.15000
H545        H  0.35244351  0.90340434  0.08933714     0.15100
C546        C  0.35541108  0.86392736  0.16093677    -0.23900
H547        H  0.35958863  0.50365612  0.21756173     0.05300
H548        H  0.33806953  0.49813659  0.16042368     0.08500
H549        H  0.38603304  0.51762060  0.16411940     0.08500
H550        H  0.33412506  0.84278978  0.18329149     0.08500
H551        H  0.38168804  0.86807095  0.17213768     0.08500
H552        H  0.35111053  0.85442893  0.12297879     0.05300
O553        O  0.82130431  0.34532889  0.35529818    -0.72000
O554        O  0.90765877  0.43311872  0.36151882    -0.72200
O555        O  0.85241376  0.40435315  0.30080714    -0.72100
O556        O  0.87732983  0.37454698  0.41605920    -0.72100
O557        O  0.90458170  0.35362264  0.37357205    -0.72100
O558        O  0.87694537  0.38038632  0.25867108    -0.72100
O559        O  0.93327955  0.41126374  0.31751191    -0.72000
O560        O  0.84765970  0.32235348  0.31496491    -0.72200
V561        V  0.86504469  0.38875935  0.35766335     1.35200
V562        V  0.88999901  0.36722199  0.31699901     1.35200
C563        C  0.81973870  0.31882385  0.33419263     0.77200
C564        C  0.93515644  0.43742429  0.34014136     0.77300
C565        C  0.86085545  0.39776505  0.25997538     0.77100
C566        C  0.89648820  0.36029933  0.41451139     0.77100
O567        O  0.65657263  0.18428664  0.31042707    -0.72000
O568        O  0.56996285  0.09610367  0.31640295    -0.72200
O569        O  0.60046850  0.15478814  0.37075045    -0.72100
O570        O  0.62524833  0.12509436  0.25557656    -0.72100
O571        O  0.64979868  0.10127922  0.29785132    -0.72100
O572        O  0.62755358  0.13373760  0.41328127    -0.72100
O573        O  0.59568341  0.07439474  0.36028968    -0.72000
O574        O  0.68259639  0.16120481  0.35100621    -0.72200
V575        V  0.61370426  0.13979017  0.31407994     1.35200
V576        V  0.63858028  0.11825344  0.35476056     1.35200
C577        C  0.68447542  0.18778924  0.32974906     0.77200
C578        C  0.56797330  0.07010527  0.33965553     0.77300
C579        C  0.60852019  0.14815944  0.41171770     0.77100
C580        C  0.64032196  0.10670165  0.25703983     0.77100
O581        O  0.97869017  0.32136606  0.68995905    -0.72000
O582        O  0.98085885  0.40925232  0.68400325    -0.72200
O583        O  0.95373013  0.35161412  0.62843968    -0.75100
O584        O  0.00630370  0.38004208  0.74523163    -0.72100
O585        O  0.55573116  0.40626088  0.70173206    -0.72100
O586        O  0.50274885  0.37491141  0.58530955    -0.72100
O587        O  0.52887935  0.43386617  0.63944170    -0.72000
O588        O  0.52945429  0.34674850  0.64792752    -0.72200
V589        V  0.98087945  0.36587131  0.68616441     1.35200
V590        V  0.52828968  0.38987754  0.64434312     1.35200
C591        C  0.50444291  0.32004815  0.66889687     0.77200
C592        C  0.50430906  0.43696727  0.65912947     0.77300
C593        C  0.96943561  0.35937640  0.58805857     0.77100
C594        C  0.54026799  0.40031800  0.74210957     0.77100
O595        O  0.53072579  0.18428636  0.69392573    -0.72000
O596        O  0.52984723  0.09669253  0.68900123    -0.72200
O597        O  0.55772959  0.15504161  0.63388016    -0.72100
O598        O  0.50258726  0.12513466  0.74897466    -0.72100
O599        O  0.95225332  0.09845233  0.70797402    -0.72100
O600        O  0.00556532  0.12984761  0.59149912    -0.72100
O601        O  0.97898926  0.07094809  0.64555198    -0.72000
O602        O  0.97871630  0.15794660  0.65382490    -0.72200
V603        V  0.52926945  0.13997082  0.69071175     1.35200
V604        V  0.97980913  0.11487685  0.65050377     1.35200
C605        C  0.50641157  0.18768875  0.67426335     0.77200
C606        C  0.50627292  0.07052349  0.66566154     0.77300
C607        C  0.54289341  0.14837515  0.59294444     0.77100
C608        C  0.96773377  0.10386032  0.74836105     0.77100
O609        O  0.83936469  0.02126341  0.01764666    -0.72000
O610        O  0.92685065  0.02201052  0.02470864    -0.72200
O611        O  0.89794639  0.04692185  0.96195974    -0.72100
O612        O  0.86909852  0.99660192  0.08036549    -0.72100
O613        O  0.85097822  0.45098138  0.04345612    -0.72100
O614        O  0.87766651  0.50107632  0.92408702    -0.72100
O615        O  0.90763737  0.47630415  0.98564148    -0.72000
O616        O  0.82010314  0.47535426  0.98201334    -0.72200
V617        V  0.88267911  0.02073740  0.02035244     1.35200
V618        V  0.86440755  0.47689199  0.98450164     1.35200
C619        C  0.81235769  0.99585034  0.99783577     0.77200
C620        C  0.92988847  0.99697737  0.00659812     0.77300
C621        C  0.89199119  0.03070885  0.92211908     0.77100
C622        C  0.86005819  0.46754143  0.08323332     0.77100
O623        O  0.65768952  0.47778593  0.02048899    -0.72000
O624        O  0.57087880  0.47863526  0.02180490    -0.72200
O625        O  0.60010156  0.45172276  0.96316959    -0.72100
O626        O  0.62779924  0.50482423  0.07945599    -0.72100
O627        O  0.64883100  0.05285933  0.03657585    -0.72100
O628        O  0.62182197  0.99815365  0.92125364    -0.72100
O629        O  0.59252989  0.02613337  0.97822210    -0.72000
O630        O  0.67894167  0.02497529  0.97942937    -0.72200
V631        V  0.61476116  0.47920212  0.02045849     1.35200
V632        V  0.63522003  0.02458366  0.97968819     1.35200
C633        C  0.68115729  0.00010854  0.99952942     0.77200
C634        C  0.56543376  0.00284692  0.00028274     0.77300
C635        C  0.60679186  0.46709623  0.92269130     0.77100
C636        C  0.64020322  0.03799692  0.07746401     0.77100
C637        C  0.50253061  0.46998236  0.00697559    -0.20500
C638        C  0.53160409  0.00362617  0.00094683    -0.07100
C639        C  0.52759747  0.03080976  0.97839647     0.13800
C640        C  0.49463166  0.02925048  0.98052542    -0.20600
C641        C  0.96394340  0.99709519  0.00954008    -0.07100
C642        C  0.97326234  0.47626965  0.02585167     0.13700
C643        C  0.94328581  0.44628072  0.05327636    -0.23900
H644        H  0.50402490  0.44599879  0.01114143     0.15000
H645        H  0.49122023  0.04963630  0.96301858     0.15100
C646        C  0.55740727  0.06154340  0.95177018    -0.23900
H647        H  0.95153926  0.42826804  0.06972286     0.05300
H648        H  0.92073146  0.43024783  0.02859772     0.08500
H649        H  0.93424165  0.45720237  0.08273902     0.08500
H650        H  0.56615540  0.05155238  0.92086063     0.08500
H651        H  0.57996104  0.07711167  0.97669171     0.08500
H652        H  0.54910220  0.07997889  0.93692974     0.05300
C653        C  0.77933774  0.02849038  0.00080156    -0.20500
C654        C  0.77811111  0.99572138  0.99665292    -0.07100
C655        C  0.74913836  0.46779218  0.99631758     0.13800
C656        C  0.71793843  0.46984064  0.99650692    -0.20600
C657        C  0.71487388  0.99940476  0.99862966    -0.07100
C658        C  0.74836463  0.03082034  0.00160382     0.13700
C659        C  0.75185529  0.06691622  0.00733807    -0.23900
H660        H  0.80487182  0.05267804  0.00331598     0.15000
H661        H  0.69244014  0.44572049  0.99282657     0.15100
C662        C  0.74585133  0.43169139  0.99228182    -0.23900
H663        H  0.77992542  0.08812352  0.01240910     0.05300
H664        H  0.73662889  0.06702807  0.03945233     0.08500
H665        H  0.74186164  0.07371530  0.97456169     0.08500
H666        H  0.75873797  0.42701719  0.02380321     0.08500
H667        H  0.75841159  0.42990291  0.95833759     0.08500
H668        H  0.71767282  0.41003497  0.99149923     0.05300
C669        C  0.91304563  0.05772563  0.78957292    -0.20500
C670        C  0.94706267  0.08799089  0.79345952    -0.07100
C671        C  0.96103379  0.10079487  0.84012181     0.13800
C672        C  0.94136042  0.08231376  0.88098017    -0.20600
C673        C  0.90844362  0.05083001  0.87701616    -0.07100
C674        C  0.89376237  0.03876107  0.83057493     0.13700
C675        C  0.85779808  0.00615561  0.82376174    -0.23900
H676        H  0.90198789  0.04790230  0.75408547     0.15000
H677        H  0.95265192  0.09176402  0.91648186     0.15100
C678        C  0.99663509  0.13379184  0.84770060    -0.23900
H679        H  0.84955680  0.00205939  0.78525788     0.05300
H680        H  0.83947513  0.51718292  0.84806636     0.08500
H681        H  0.85837935  0.98216414  0.83590531     0.08500
H682        H  0.99746257  0.15654803  0.82837622     0.08500
H683        H  0.01819988  0.12939683  0.83452347     0.08500
H684        H  0.00193729  0.14104054  0.88649052     0.05300
C685        C  0.54169344  0.40166313  0.83151489    -0.20500
C686        C  0.56019444  0.41510269  0.78794889    -0.07100
C687        C  0.59563906  0.44400408  0.78966281     0.13800
C688        C  0.61067671  0.45935954  0.83448465    -0.20600
C689        C  0.59149381  0.44672878  0.87763526    -0.07100
C690        C  0.55661914  0.41713252  0.87611783     0.13700
C691        C  0.53392789  0.40291870  0.92081511    -0.23900
H692        H  0.51471969  0.37948586  0.83066969     0.15000
H693        H  0.63736292  0.48204171  0.83577677     0.15100
C694        C  0.61753989  0.45993529  0.74475777    -0.23900
H695        H  0.50677392  0.38092930  0.91233158     0.05300
H696        H  0.52740211  0.91710131  0.94017111     0.08500
H697        H  0.54603950  0.39233550  0.94626509     0.08500
H698        H  0.60424748  0.47016566  0.72077978     0.08500
H699        H  0.62117289  0.43960239  0.72549237     0.08500
H700        H  0.64436976  0.48250717  0.75327226     0.05300
C701        C  0.53683667  0.28674404  0.67438636    -0.20500
C702        C  0.50421352  0.28587152  0.67179780    -0.07100
C703        C  0.97014989  0.24987889  0.67805948     0.13800
C704        C  0.97164312  0.21837495  0.67884312    -0.20600
C705        C  0.50676563  0.22203548  0.67523284    -0.07100
C706        C  0.53860056  0.25539576  0.67654647     0.13700
C707        C  0.57463570  0.25843900  0.67869544    -0.23900
H708        H  0.56119815  0.31222372  0.67500493     0.15000
H709        H  0.94722755  0.19305660  0.68165803     0.15100
C710        C  0.93426290  0.24717765  0.68067272    -0.23900
H711        H  0.59645000  0.28653330  0.67712488     0.05300
H712        H  0.57794213  0.24419461  0.64764904     0.08500
H713        H  0.57754671  0.24707629  0.71309132     0.08500
H714        H  0.93024994  0.26001961  0.64854374     0.08500
H715        H  0.93226266  0.26012604  0.71411269     0.08500
H716        H  0.91232165  0.21912090  0.68153001     0.05300
C717        C  0.53435326  0.00022438  0.66867197    -0.20500
C718        C  0.50395746  0.47091622  0.65725425    -0.07100
C719        C  0.97406275  0.47101778  0.65559339     0.13800
C720        C  0.97126939  0.00226766  0.66506263    -0.20600
C721        C  0.50606061  0.03627943  0.66309795    -0.07100
C722        C  0.53690103  0.03365712  0.67087203     0.13700
C723        C  0.57277447  0.06573089  0.68070299    -0.23900
H724        H  0.55777546  0.99808951  0.67519066     0.15000
H725        H  0.94720836  0.00353226  0.66986662     0.15100
C726        C  0.93848329  0.43800506  0.64779594    -0.23900
H727        H  0.57237643  0.07797675  0.71567283     0.05300
H728        H  0.57995056  0.08532388  0.65105027     0.08500
H729        H  0.59396616  0.05867046  0.68307137     0.08500
H730        H  0.93073283  0.42079615  0.68025705     0.08500
H731        H  0.93978089  0.42317501  0.61593978     0.08500
H732        H  0.91719426  0.44446247  0.64108882     0.05300
C733        C  0.61376273  0.16246176  0.49957775    -0.20500
C734        C  0.59403594  0.15472095  0.45669929    -0.07100
C735        C  0.55922499  0.14953641  0.45865045     0.13800
C736        C  0.54457364  0.15024923  0.50343568    -0.20600
C737        C  0.56325317  0.15547618  0.54688401    -0.07100
C738        C  0.59904922  0.16320839  0.54458144     0.13700
C739        C  0.62176513  0.17114380  0.58904870    -0.23900
H740        H  0.64056559  0.16688846  0.49800497     0.15000
H741        H  0.51748652  0.14502266  0.50454100     0.15100
C742        C  0.53620048  0.14085038  0.41427986    -0.23900
H743        H  0.64912537  0.17726272  0.58002251     0.05300
H744        H  0.61012520  0.14781730  0.61351691     0.08500
H745        H  0.62386584  0.19462748  0.60797481     0.08500
H746        H  0.53294100  0.11636493  0.39694194     0.08500
H747        H  0.54839980  0.16333816  0.38842935     0.08500
H748        H  0.50927177  0.13612857  0.42304854     0.05300
C749        C  0.64401304  0.04214128  0.16699233    -0.20500
C750        C  0.64549184  0.05863948  0.12275741    -0.07100
C751        C  0.64773644  0.09234407  0.12337736     0.13800
C752        C  0.64774351  0.10796295  0.16786020    -0.20600
C753        C  0.64511912  0.09088410  0.21196684    -0.07100
C754        C  0.64343461  0.05750333  0.21136736     0.13700
C755        C  0.63867387  0.03664084  0.25693365    -0.23900
H756        H  0.64199962  0.01628325  0.16687335     0.15000
H757        H  0.64876069  0.13337138  0.16813619     0.15100
C758        C  0.64825503  0.11141248  0.07764372    -0.23900
H759        H  0.63607194  0.01036420  0.24937817     0.05300
H760        H  0.61415403  0.03185822  0.27575581     0.08500
H761        H  0.66199385  0.05142648  0.28091517     0.08500
H762        H  0.62395156  0.09456564  0.05614553     0.08500
H763        H  0.67223610  0.11776777  0.05612692     0.08500
H764        H  0.64898311  0.13683824  0.08524308     0.05300
C765        C  0.94523042  0.35686371  0.45512595    -0.20500
C766        C  0.91186522  0.35435510  0.45890835    -0.07100
C767        C  0.89586918  0.34904757  0.50489870     0.13800
C768        C  0.91454615  0.34845967  0.54587867    -0.20600
C769        C  0.94918330  0.35387006  0.54250659    -0.07100
C770        C  0.96430922  0.35713879  0.49608612     0.13700
C771        C  0.49761879  0.35387010  0.48752111    -0.23900
H772        H  0.95744994  0.36061722  0.41988627     0.15000
H773        H  0.90253724  0.34551367  0.58109980     0.15100
C774        C  0.85923338  0.34400820  0.51135267    -0.23900
H775        H  0.50282486  0.35085558  0.44904214     0.05300
H776        H  0.49753472  0.33193363  0.50811073     0.08500
H777        H  0.51971584  0.37982293  0.49998060     0.08500
H778        H  0.84001745  0.32178257  0.48824661     0.08500
H779        H  0.85921961  0.36874362  0.50174644     0.08500
H780        H  0.85000970  0.33756386  0.54933743     0.05300
C781        C  0.49879810  0.46845091  0.35502487    -0.20500
C782        C  0.96887078  0.47198456  0.34132496    -0.07100
C783        C  0.96999841  0.99931112  0.31360530     0.13800
C784        C  0.50303721  0.03452456  0.32491036    -0.20600
C785        C  0.53399229  0.03566531  0.34220039    -0.07100
C786        C  0.53157242  0.00389927  0.36024903     0.13700
C787        C  0.56246418  0.49916065  0.38005656    -0.23900
H788        H  0.49648060  0.44409497  0.36900180     0.15000
H789        H  0.50442499  0.05852893  0.31128483     0.15100
C790        C  0.93889273  0.99769614  0.28730922    -0.23900
H791        H  0.55514828  0.47194131  0.39192679     0.05300
H792        H  0.57350603  0.02011465  0.41269591     0.08500
H793        H  0.58407848  0.01098935  0.35274139     0.08500
H794        H  0.92546102  0.49282494  0.39641734     0.08500
H795        H  0.91808122  0.49512331  0.33218503     0.08500
H796        H  0.94571595  0.02373548  0.27121154     0.05300
C797        C  0.75441673  0.28634196  0.32538544    -0.20500
C798        C  0.78569772  0.28493530  0.33135048    -0.07100
C799        C  0.78360557  0.25156367  0.33531238     0.13800
C800        C  0.75022317  0.22055823  0.33391733    -0.20600
C801        C  0.71877580  0.22182581  0.32809611    -0.07100
C802        C  0.72102766  0.25532380  0.32319658     0.13700
C803        C  0.68858737  0.25895130  0.31691650    -0.23900
H804        H  0.75616268  0.31200025  0.32209835     0.15000
H805        H  0.74872067  0.19503638  0.33752281     0.15100
C806        C  0.81619202  0.24835209  0.34282909    -0.23900
H807        H  0.69546993  0.28721441  0.31554087     0.05300
H808        H  0.67012689  0.24623128  0.34769492     0.08500
H809        H  0.67506920  0.24635902  0.28250073     0.08500
H810        H  0.83068124  0.26345156  0.37551677     0.08500
H811        H  0.83384059  0.25878237  0.31085346     0.08500
H812        H  0.80932357  0.22028978  0.34787741     0.05300
C813        C  0.85676705  0.44561206  0.21743206    -0.20500
C814        C  0.85452168  0.41232440  0.21510646    -0.07100
C815        C  0.84925705  0.39542497  0.16975128     0.13800
C816        C  0.84909917  0.41342244  0.12776683    -0.20600
C817        C  0.85449127  0.44810373  0.12962294    -0.07100
C818        C  0.85709353  0.46387150  0.17544060     0.13700
C819        C  0.85355870  0.99495959  0.17937676    -0.23900
H820        H  0.86022708  0.45832864  0.25221660     0.15000
H821        H  0.84639945  0.40083925  0.09309258     0.15100
C822        C  0.84358387  0.35838697  0.16508256    -0.23900
H823        H  0.85250437  0.00145029  0.21791379     0.05300
H824        H  0.83094135  0.99474545  0.16053349     0.08500
H825        H  0.87906435  0.01635027  0.16459454     0.08500
H826        H  0.82125118  0.33990833  0.18864416     0.08500
H827        H  0.86805369  0.35806180  0.17524945     0.08500
H828        H  0.83695202  0.34836749  0.12745140     0.05300
O829        O  0.82082176  0.84334332  0.35514821    -0.72000
O830        O  0.90704035  0.93138857  0.35601418    -0.72200
O831        O  0.85031172  0.90125866  0.29842660    -0.72100
O832        O  0.87826567  0.87372340  0.41293257    -0.72100
O833        O  0.90302904  0.85037715  0.37002202    -0.72100
O834        O  0.87543071  0.87816447  0.25570870    -0.72100
O835        O  0.93233571  0.90805585  0.31379598    -0.72000
O836        O  0.84568012  0.82016486  0.31206666    -0.72200
V837        V  0.86451573  0.88685807  0.35489037     1.35200
V838        V  0.88853071  0.86454763  0.31369764     1.35200
C839        C  0.81843688  0.81671749  0.33332234     0.77200
C840        C  0.93421427  0.93469511  0.33486778     0.77300
C841        C  0.85870996  0.89493126  0.25742440     0.77100
C842        C  0.89602968  0.85798354  0.41110525     0.77100
O843        O  0.65578942  0.68189342  0.31334815    -0.72000
O844        O  0.57029931  0.59270301  0.31442202    -0.72200
O845        O  0.59814063  0.65057536  0.37050545    -0.72100
O846        O  0.62728837  0.62363328  0.25681725    -0.72100
O847        O  0.65041690  0.59898044  0.30042571    -0.72100
O848        O  0.62571260  0.63069569  0.41430513    -0.72100
O849        O  0.59512131  0.57136423  0.36079446    -0.72000
O850        O  0.68180485  0.65872647  0.35393632    -0.72200
V851        V  0.61348325  0.63690172  0.31460321     1.35200
V852        V  0.63792982  0.61552241  0.35654866     1.35200
C853        C  0.68351749  0.68540428  0.33319681     0.77200
C854        C  0.56798523  0.56673333  0.33810228     0.77300
C855        C  0.60620096  0.64455581  0.41183291     0.77100
C856        C  0.64221206  0.60514314  0.25919389     0.77100
O857        O  0.97759918  0.82008878  0.68758209    -0.72000
O858        O  0.97709795  0.90672210  0.68214819    -0.72200
O859        O  0.95150437  0.84911455  0.62608287    -0.75100
O860        O  0.00355884  0.87850320  0.74343596    -0.72100
O861        O  0.55176371  0.90281417  0.70225635    -0.72100
O862        O  0.49827780  0.87336168  0.58607235    -0.72100
O863        O  0.52563904  0.93173795  0.64154298    -0.72000
O864        O  0.52482474  0.84414014  0.64714222    -0.72200
V865        V  0.97842434  0.86394834  0.68404237     1.35200
V866        V  0.52415464  0.88742452  0.64494887     1.35200
C867        C  0.50056657  0.81778549  0.66950886     0.77200
C868        C  0.50095365  0.93487869  0.66056057     0.77300
C869        C  0.96728386  0.85671877  0.58574110     0.77100
C870        C  0.53639790  0.89758531  0.74262758     0.77100
O871        O  0.53050622  0.68428070  0.69489133    -0.72000
O872        O  0.53103450  0.59734847  0.68672532    -0.72200
O873        O  0.55720606  0.65590164  0.63282694    -0.72100
O874        O  0.50400062  0.62492229  0.74937607    -0.72100
O875        O  0.95497208  0.59927971  0.70823020    -0.72100
O876        O  0.00828957  0.63047808  0.59181812    -0.72100
O877        O  0.98262929  0.57209503  0.64651216    -0.72000
O878        O  0.98081939  0.65836167  0.65330481    -0.72200
V879        V  0.52970440  0.64027352  0.69031033     1.35200
V880        V  0.98259078  0.61562421  0.65076886     1.35200
C881        C  0.50600671  0.68747251  0.67535795     0.77200
C882        C  0.50674814  0.57106934  0.66432563     0.77300
C883        C  0.54178360  0.64818359  0.59231101     0.77100
C884        C  0.97041189  0.60581068  0.74876669     0.77100
O885        O  0.84377412  0.52482189  0.02202911    -0.72000
O886        O  0.93216725  0.52725112  0.02260193    -0.72200
O887        O  0.90068067  0.55100881  0.96312226    -0.72100
O888        O  0.87598537  0.50107046  0.08196498    -0.72100
O889        O  0.84599581  0.94668760  0.04157661    -0.72100
O890        O  0.87401322  0.99712382  0.92261731    -0.72100
O891        O  0.90331911  0.97227181  0.98525808    -0.72000
O892        O  0.81563295  0.97111268  0.97925867    -0.72200
V893        V  0.88750529  0.52503461  0.02172007     1.35200
V894        V  0.86004784  0.97277374  0.98284198     1.35200
C895        C  0.81677622  0.49967878  0.00183210     0.77200
C896        C  0.93479675  0.50205785  0.00435892     0.77300
C897        C  0.89484578  0.53469009  0.92340237     0.77100
C898        C  0.85398227  0.96312383  0.08145971     0.77100
O899        O  0.65375846  0.97570409  0.02000872    -0.72000
O900        O  0.56785751  0.97856704  0.02205111    -0.72200
O901        O  0.59564965  0.94982170  0.96371346    -0.72100
O902        O  0.62508097  0.00444862  0.07882437    -0.72100
O903        O  0.65173265  0.55378918  0.03848989    -0.72100
O904        O  0.62545904  0.50062877  0.92176907    -0.72100
O905        O  0.59535586  0.52721356  0.97982561    -0.72000
O906        O  0.68254015  0.52733202  0.98047443    -0.72200
V907        V  0.61123063  0.97805740  0.02037455     1.35200
V908        V  0.63845032  0.52629283  0.98090645     1.35200
C909        C  0.68505613  0.50264510  0.00063604     0.77200
C910        C  0.56823246  0.50304987  0.00090480     0.77300
C911        C  0.60269954  0.96467497  0.92284177     0.77100
C912        C  0.64316717  0.53840010  0.07902685     0.77100
C913        C  0.50231686  0.97611090  0.02535309    -0.20500
C914        C  0.53396689  0.50272663  0.00080262    -0.07100
C915        C  0.53176583  0.53398522  0.99546432     0.13800
C916        C  0.49839356  0.53152260  0.99659862    -0.20600
C917        C  0.96900005  0.50305705  0.00386753    -0.07100
C918        C  0.96558155  0.96539003  0.01062445     0.13700
C919        C  0.93263579  0.92922716  0.01346196    -0.23900
H920        H  0.50500371  0.95544877  0.04325209     0.15000
H921        H  0.49667895  0.55540382  0.99255085     0.15100
C922        C  0.56422971  0.57020442  0.98972989    -0.23900
H923        H  0.93919434  0.90778788  0.01788608     0.05300
H924        H  0.91690118  0.92357280  0.97980793     0.08500
H925        H  0.91631759  0.92811935  0.04497904     0.08500
H926        H  0.57803119  0.57150864  0.95545042     0.08500
H927        H  0.58236057  0.57571204  0.02076465     0.08500
H928        H  0.55737015  0.59158153  0.98851784     0.05300
C929        C  0.78336723  0.53195506  0.00618909    -0.20500
C930        C  0.78248544  0.49938891  0.00107708    -0.07100
C931        C  0.74453956  0.96420647  0.99340498     0.13800
C932        C  0.71344721  0.96652294  0.99487432    -0.20600
C933        C  0.71900488  0.50249969  0.00072969    -0.07100
C934        C  0.75220638  0.53398392  0.00592116     0.13700
C935        C  0.75506820  0.56970892  0.01291182    -0.23900
H936        H  0.80873120  0.55618279  0.01010897     0.15000
H937        H  0.68777694  0.94246573  0.99253375     0.15100
C938        C  0.74097335  0.92798423  0.98959213    -0.23900
H939        H  0.78290136  0.59099247  0.01950150     0.05300
H940        H  0.73893638  0.56878085  0.04454404     0.08500
H941        H  0.74567189  0.57713528  0.98010524     0.08500
H942        H  0.75420340  0.92345969  0.02082538     0.08500
H943        H  0.75308934  0.92588587  0.95539319     0.08500
H944        H  0.71273637  0.90644490  0.98949753     0.05300
C945        C  0.91480439  0.56177890  0.79090221    -0.20500
C946        C  0.94975096  0.59073759  0.79420973    -0.07100
C947        C  0.96450676  0.60306296  0.84072450     0.13800
C948        C  0.94483218  0.58512525  0.88182521    -0.20600
C949        C  0.91104741  0.55476777  0.87829872    -0.07100
C950        C  0.89540607  0.54348632  0.83223541     0.13700
C951        C  0.85824091  0.51255790  0.82636604    -0.23900
H952        H  0.90297455  0.55245563  0.75564720     0.15000
H953        H  0.95676737  0.59396751  0.91715775     0.15100
C954        C  0.00100876  0.63487719  0.84801032    -0.23900
H955        H  0.84941559  0.50891545  0.78812512     0.05300
H956        H  0.83755350  0.00893907  0.84466435     0.08500
H957        H  0.85697673  0.48761905  0.83828371     0.08500
H958        H  0.00296051  0.65830848  0.82915630     0.08500
H959        H  0.02154703  0.62914348  0.83421673     0.08500
H960        H  0.00691386  0.64188173  0.88678866     0.05300
C961        C  0.53884210  0.89744165  0.83192767    -0.20500
C962        C  0.55650184  0.91221642  0.78824133    -0.07100
C963        C  0.59109293  0.94243575  0.78965856     0.13800
C964        C  0.60613505  0.95772522  0.83444182    -0.20600
C965        C  0.58766777  0.94394516  0.87788305    -0.07100
C966        C  0.55370493  0.91292307  0.87658644     0.13700
C967        C  0.53182225  0.89702529  0.92156224    -0.23900
H968        H  0.51249974  0.87420003  0.83110867     0.15000
H969        H  0.63216436  0.98140302  0.83544713     0.15100
C970        C  0.61181043  0.95998733  0.74444703    -0.23900
H971        H  0.50535871  0.87379548  0.91325113     0.05300
H972        H  0.53125151  0.42436930  0.93851157     0.08500
H973        H  0.54561019  0.88772107  0.94612524     0.08500
H974        H  0.59672168  0.96883445  0.72162537     0.08500
H975        H  0.61701495  0.94110706  0.72403464     0.08500
H976        H  0.63791693  0.98373828  0.75269078     0.05300
C977        C  0.53432882  0.78578110  0.67246741    -0.20500
C978        C  0.50123063  0.78408873  0.67305828    -0.07100
C979        C  0.97076254  0.74960713  0.67069635     0.13800
C980        C  0.97286501  0.71846045  0.67175091    -0.20600
C981        C  0.50565224  0.72135462  0.67684441    -0.07100
C982        C  0.53701719  0.75496287  0.67476252     0.13700
C983        C  0.57334667  0.75866167  0.67325877    -0.23900
H984        H  0.55835826  0.81148681  0.67036925     0.15000
H985        H  0.94859290  0.69290419  0.67084859     0.15100
C986        C  0.93460769  0.74625742  0.66767212    -0.23900
H987        H  0.59467427  0.78682078  0.66939513     0.05300
H988        H  0.57520819  0.74364374  0.64205028     0.08500
H989        H  0.57836509  0.74844265  0.70728259     0.08500
H990        H  0.93313527  0.76049988  0.63528601     0.08500
H991        H  0.92944817  0.75742723  0.70067592     0.08500
H992        H  0.91308300  0.71810067  0.66484096     0.05300
C993        C  0.53610637  0.50266724  0.64920946    -0.20500
C994        C  0.50190608  0.96927981  0.65961618    -0.07100
C995        C  0.96929946  0.96908302  0.66451737     0.13800
C996        C  0.97575100  0.50402715  0.65693176    -0.20600
C997        C  0.50678264  0.53725707  0.66027975    -0.07100
C998        C  0.53789367  0.53581020  0.65043910     0.13700
C999        C  0.57267713  0.56889825  0.63943260    -0.23900
H1000       H  0.56013238  0.50165638  0.64272787     0.15000
H1001       H  0.95140765  0.50495688  0.65401157     0.15100
C1002       C  0.93321178  0.93616808  0.66871488    -0.23900
H1003       H  0.58207157  0.58662770  0.67140736     0.05300
H1004       H  0.56918898  0.58306646  0.60845336     0.08500
H1005       H  0.59368245  0.56262716  0.62967687     0.08500
H1006       H  0.93131501  0.92205320  0.70291106     0.08500
H1007       H  0.92858440  0.91837764  0.63743140     0.08500
H1008       H  0.91154955  0.94262395  0.66912053     0.05300
C1009       C  0.61184945  0.66062436  0.49888128    -0.20500
C1010       C  0.59172208  0.65169724  0.45629383    -0.07100
C1011       C  0.55692199  0.64652380  0.45809893     0.13800
C1012       C  0.54254620  0.64810620  0.50273056    -0.20600
C1013       C  0.56167648  0.65453575  0.54602533    -0.07100
C1014       C  0.59755709  0.66252575  0.54362281     0.13700
C1015       C  0.62091342  0.67211728  0.58770775    -0.23900
H1016       H  0.63872112  0.66523915  0.49730228     0.15000
H1017       H  0.51540553  0.64271625  0.50391327     0.15100
C1018       C  0.53374621  0.63714493  0.41380172    -0.23900
H1019       H  0.64827412  0.67834221  0.57846722     0.05300
H1020       H  0.60995162  0.64961862  0.61354081     0.08500
H1021       H  0.62290836  0.69601859  0.60520680     0.08500
H1022       H  0.53040789  0.61238589  0.39727937     0.08500
H1023       H  0.54589441  0.65921172  0.38729928     0.08500
H1024       H  0.50687430  0.63262638  0.42245566     0.05300
C1025       C  0.64259822  0.53960366  0.16867744    -0.20500
C1026       C  0.64882267  0.55839571  0.12507459    -0.07100
C1027       C  0.65640097  0.59417857  0.12687351     0.13800
C1028       C  0.65585121  0.60921605  0.17159687    -0.20600
C1029       C  0.64796792  0.58973943  0.21466264    -0.07100
C1030       C  0.64167457  0.55454578  0.21317242     0.13700
C1031       C  0.63133570  0.53154210  0.25767545    -0.23900
H1032       H  0.63687057  0.51232822  0.16788255     0.15000
H1033       H  0.66058151  0.63615649  0.17282602     0.15100
C1034       C  0.66377585  0.61654946  0.08213465    -0.23900
H1035       H  0.62564377  0.50419598  0.24940868     0.05300
H1036       H  0.60697280  0.52948062  0.27360474     0.08500
H1037       H  0.65324238  0.54308525  0.28443344     0.08500
H1038       H  0.64051934  0.60415890  0.05762487     0.08500
H1039       H  0.68760056  0.61935880  0.06341148     0.08500
H1040       H  0.66899220  0.64369158  0.09073446     0.05300
C1041       C  0.94311400  0.85155819  0.45233572    -0.20500
C1042       C  0.91060655  0.85098419  0.45556504    -0.07100
C1043       C  0.89445251  0.84633546  0.50135352     0.13800
C1044       C  0.91273049  0.84579487  0.54278059    -0.20600
C1045       C  0.94694028  0.85012056  0.54000078    -0.07100
C1046       C  0.96158506  0.85132062  0.49381216     0.13700
C1047       C  0.49062063  0.84806431  0.48911104    -0.23900
H1048       H  0.95515402  0.85414566  0.41720699     0.15000
H1049       H  0.90083580  0.84386406  0.57783276     0.15100
C1050       C  0.85798273  0.84185626  0.50712959    -0.23900
H1051       H  0.49506933  0.84407033  0.45068334     0.05300
H1052       H  0.48908578  0.82563290  0.51019653     0.08500
H1053       H  0.51388258  0.87342096  0.50094421     0.08500
H1054       H  0.83875566  0.81975400  0.48385986     0.08500
H1055       H  0.85839665  0.86676945  0.49735416     0.08500
H1056       H  0.84841713  0.83546424  0.54498169     0.05300
C1057       C  0.49874867  0.97218331  0.35905222    -0.20500
C1058       C  0.96747881  0.96884726  0.33520956    -0.07100
C1059       C  0.97025024  0.50471286  0.35086278     0.13800
C1060       C  0.50375107  0.53064842  0.31908138    -0.20600
C1061       C  0.53422521  0.53200970  0.33876783    -0.07100
C1062       C  0.53150263  0.50026985  0.35746442     0.13700
C1063       C  0.56305253  0.00259485  0.38055975    -0.23900
H1064       H  0.49674902  0.94776588  0.37218720     0.15000
H1065       H  0.50536988  0.55457996  0.30474010     0.15100
C1066       C  0.93752989  0.50695446  0.36213658    -0.23900
H1067       H  0.55589396  0.97538803  0.39227258     0.05300
H1068       H  0.57175019  0.51649973  0.41246343     0.08500
H1069       H  0.58441473  0.50790699  0.35362054     0.08500
H1070       H  0.91644591  0.98996747  0.31266330     0.08500
H1071       H  0.93031007  0.97785737  0.25769843     0.08500
H1072       H  0.94375595  0.53486522  0.36671664     0.05300
C1073       C  0.75266661  0.78393919  0.33491926    -0.20500
C1074       C  0.78428057  0.78272431  0.33228850    -0.07100
C1075       C  0.78241227  0.74933233  0.32971177     0.13800
C1076       C  0.74908413  0.71825754  0.32989003    -0.20600
C1077       C  0.71750278  0.71948895  0.33196102    -0.07100
C1078       C  0.71931195  0.75283203  0.33450649     0.13700
C1079       C  0.68642770  0.75594246  0.33845285    -0.23900
H1080       H  0.75404320  0.80948058  0.33700419     0.15000
H1081       H  0.74766483  0.69268537  0.32811426     0.15100
C1082       C  0.81522718  0.74595144  0.32829599    -0.23900
H1083       H  0.69302926  0.78398602  0.34276894     0.05300
H1084       H  0.67059449  0.74083606  0.37034961     0.08500
H1085       H  0.67017682  0.74547954  0.30524344     0.08500
H1086       H  0.83229434  0.75960529  0.35999898     0.08500
H1087       H  0.83020157  0.75772686  0.29445713     0.08500
H1088       H  0.80858990  0.71775561  0.32925331     0.05300
C1089       C  0.85210013  0.94155184  0.21545656    -0.20500
C1090       C  0.85133440  0.90895063  0.21282835    -0.07100
C1091       C  0.84618463  0.89212502  0.16744770     0.13800
C1092       C  0.84458617  0.90955014  0.12571755    -0.20600
C1093       C  0.84870777  0.94372500  0.12777087    -0.07100
C1094       C  0.85124209  0.95937792  0.17365308     0.13700
C1095       C  0.86054534  0.49996282  0.18092350    -0.23900
H1096       H  0.85543153  0.95418456  0.25028301     0.15000
H1097       H  0.84202158  0.89706280  0.09099364     0.15100
C1098       C  0.84233959  0.85583727  0.16241850    -0.23900
H1099       H  0.85945143  0.50659701  0.21938409     0.05300
H1100       H  0.83844663  0.50051327  0.16169827     0.08500
H1101       H  0.88643065  0.52082968  0.16637985     0.08500
H1102       H  0.82076700  0.83668524  0.18641579     0.08500
H1103       H  0.86763190  0.85692345  0.17178310     0.08500
H1104       H  0.83557928  0.84567770  0.12486209     0.05300
loop_ 
_geom_bond_atom_site_label_1 
_geom_bond_atom_site_label_2 
_geom_bond_distance 
_geom_bond_site_symmetry_2 
_ccdc_geom_bond_type 
O1            V9   1.896       .  S
O1           C11   1.264       .  A
O2            V9   1.895       .  S
O2           C12   1.262       .  A
O3            V9   1.897       .  S
O3           C13   1.264       .  A
O4            V9   1.900       .  S
O4           C14   1.264       .  A
O5           V10   1.900       .  S
O5           C14   1.265       .  A
O6           V10   1.901       .  S
O6           C13   1.265       .  A
O7           V10   1.898       .  S
O7           C12   1.263       .  A
O8           V10   1.898       .  S
O8           C11   1.263       .  A
V9           V10   2.087       .  T
C11         C246   1.478       .  S
C12         C230   1.469       .  S
C13         C262   1.483       .  S
C14         C214   1.486       .  S
O15          V23   1.902       .  S
O15          C25   1.265       .  A
O16          V23   1.901       .  S
O16          C26   1.266       .  A
O17          V23   1.900       .  S
O17          C27   1.264       .  A
O18          V23   1.900       .  S
O18          C28   1.264       .  A
O19          V24   1.899       .  S
O19          C28   1.264       .  A
O20          V24   1.901       .  S
O20          C27   1.266       .  A
O21          V24   1.890       .  S
O21          C26   1.261       .  A
O22          V24   1.893       .  S
O22          C25   1.264       .  A
V23          V24   2.084       .  T
C25         C249   1.485       .  S
C26         C233   1.488       .  S
C27         C182   1.487       .  S
C28         C201   1.479       .  S
O29          V37   1.893       .  S
O29         C591   1.262       .  A
O30          V37   1.890       .  S
O30         C592   1.262       .  A
O31          V37   1.898       .  S
O31          C41   1.265       .  A
O32          V37   1.896       .  S
O32         C594   1.266       .  A
O33          V38   1.896       .  S
O33          C42   1.262       .  A
O34          V38   1.895       .  S
O34         C593   1.263   1_455  A
O35          V38   1.903       .  S
O35          C40   1.265       .  A
O36          V38   1.903       .  S
O36          C39   1.267       .  A
V37         V590   2.083       .  T
V38         V589   2.084   1_455  T
C39         O581   1.262   1_455  A
C39         C150   1.486       .  S
C40         O582   1.261   1_455  A
C40         C166   1.477       .  S
C41         O586   1.264       .  A
C41         C217   1.489       .  S
C42         O584   1.266       .  A
C42         C134   1.489       .  S
O43          V51   1.898       .  S
O43          C53   1.263       .  A
O44          V51   1.898       .  S
O44          C54   1.263       .  A
O45          V51   1.898       .  S
O45          C55   1.263       .  A
O46          V51   1.899       .  S
O46         C608   1.264   1_455  A
O47          V52   1.900       .  S
O47          C56   1.264       .  A
O48          V52   1.897       .  S
O48         C607   1.266       .  A
O49          V52   1.900       .  S
O49         C606   1.265       .  A
O50          V52   1.902       .  S
O50         C605   1.266       .  A
V51         V604   2.084   1_455  T
V52         V603   2.083       .  T
C53         O602   1.265   1_455  A
C53         C153   1.482       .  S
C54         O601   1.264   1_455  A
C54         C169   1.479       .  S
C55         O600   1.267       .  A
C55         C185   1.493       .  S
C56         O598   1.265       .  A
C56         C118   1.488       .  S
O57          V65   1.898       .  S
O57          C67   1.265   1_544  A
O58          V65   1.898       .  S
O58          C68   1.263       .  A
O59          V65   1.894   1_556  S
O59          C69   1.264       .  A
O60          V65   1.897   1_565  S
O60         C346   1.263       .  A
O61          V66   1.905   1_554  S
O61          C70   1.266       .  A
O62          V66   1.906       .  S
O62         C345   1.266       .  A
O63          V66   1.896       .  S
O63         C344   1.263   1_556  A
O64          V66   1.899       .  S
O64         C343   1.264   1_556  A
V65         V342   2.085   1_544  T
V66         V341   2.084   1_556  T
C67         O340   1.264       .  A
C67         C102   1.487       .  S
C68         O339   1.263   1_544  A
C68          C89   1.468       .  S
C69         O338   1.266   1_545  A
C69         C121   1.488       .  S
C70         O336   1.263       .  A
C70         C265   1.492       .  S
O71          V79   1.899       .  S
O71         C357   1.265   1_554  A
O72          V79   1.897       .  S
O72         C358   1.265   1_554  A
O73          V79   1.893   1_556  S
O73          C83   1.262       .  A
O74          V79   1.896       .  S
O74         C360   1.264       .  A
O75          V80   1.899   1_554  S
O75          C84   1.263       .  A
O76          V80   1.900   1_565  S
O76         C359   1.266       .  A
O77          V80   1.897       .  S
O77          C82   1.263   1_556  A
O78          V80   1.899       .  S
O78          C81   1.264       .  A
V79         V356   2.084   1_554  T
V80         V355   2.084   1_546  T
C81         O347   1.265   1_546  A
C81         C105   1.483       .  S
C82         O348   1.264   1_545  A
C82          C86   1.480       .  S
C83         O352   1.265       .  A
C83         C137   1.478       .  S
C84         O350   1.266       .  A
C84         C198   1.494       .  S
C85          H92   1.083       .  S
C85         C362   1.409   1_554  A
C85         C642   1.401   1_455  A
C86          C87   1.416       .  A
C86         C361   1.403   1_445  A
C87          C88   1.404   1_455  A
C87          C94   1.509       .  S
C88          H93   1.084       .  S
C88         C641   1.404   1_545  A
C89         C640   1.398   1_554  A
C89         C366   1.408   1_545  A
C90         C637   1.403       .  A
C90         C365   1.414       .  A
C90          C91   1.508       .  S
C91          H95   1.111       .  S
C91          H96   1.109   1_554  S
C91          H97   1.111       .  S
C94          H98   1.109   1_554  S
C94          H99   1.111       .  S
C94         H100   1.111       .  S
C101        H108   1.084   1_556  S
C101        C102   1.405   1_545  A
C101        C106   1.403       .  A
C102        C379   1.418       .  A
C103        C104   1.404       .  A
C103        C378   1.417   1_556  A
C103        C110   1.508       .  S
C104        H109   1.084       .  S
C104        C381   1.404       .  A
C105        C106   1.415       .  A
C105        C380   1.405   1_545  A
C106        C107   1.508   1_556  S
C107        H111   1.111       .  S
C107        H112   1.111       .  S
C107        H113   1.109   1_554  S
C110        H114   1.111   1_556  S
C110        H115   1.109       .  S
C110        H116   1.111   1_556  S
C117        H124   1.084       .  S
C117        C118   1.408       .  A
C117        C122   1.407       .  A
C118        C119   1.415       .  A
C119        C120   1.403       .  A
C119        C126   1.508       .  S
C120        H125   1.084       .  S
C120        C121   1.406       .  A
C121        C122   1.416       .  A
C122        C123   1.508       .  S
C123        H127   1.111   1_545  S
C123        H129   1.109   1_545  S
C123        H404   1.110       .  S
C126        H130   1.110       .  S
C126        H131   1.109       .  S
C126        H132   1.111       .  S
H128        C399   1.111       .  S
C133        H140   1.084       .  S
C133        C134   1.405       .  A
C133        C138   1.400       .  A
C134        C135   1.422       .  A
C135        C136   1.406       .  A
C135        C142   1.508       .  S
C136        H141   1.084       .  S
C136        C137   1.401       .  A
C137        C138   1.415       .  A
C138        C139   1.510       .  S
C139        H143   1.111       .  S
C139        H145   1.109       .  S
C139        H420   1.111       .  S
C142        H146   1.110       .  S
C142        H147   1.110       .  S
C142        H148   1.111       .  S
H144        C415   1.111       .  S
C149        H156   1.084       .  S
C149        C150   1.404       .  A
C149        C154   1.403       .  A
C150        C703   1.419   1_455  A
C151        C152   1.404       .  A
C151        C702   1.417       .  A
C151        C158   1.509       .  S
C152        H157   1.084       .  S
C152        C705   1.404       .  A
C153        C154   1.416       .  A
C153        C704   1.403   1_455  A
C154        C155   1.508       .  S
C155        H159   1.111       .  S
C155        H160   1.111       .  S
C155        H161   1.110       .  S
C158        H162   1.111       .  S
C158        H163   1.110       .  S
C158        H164   1.111       .  S
C165        H172   1.084       .  S
C165        C170   1.404   1_565  A
C165        C442   1.405       .  A
C166        C441   1.402       .  A
C166        C719   1.415   1_455  A
C167        C718   1.420       .  A
C167        C444   1.401       .  A
C167        C174   1.509       .  S
C168        H173   1.084       .  S
C168        C443   1.404   1_545  A
C168        C721   1.407       .  A
C169        C170   1.414       .  A
C169        C720   1.401   1_455  A
C170        C171   1.507       .  S
C171        H175   1.109       .  S
C171        H176   1.110       .  S
C171        H177   1.111       .  S
C174        H178   1.109       .  S
C174        H179   1.111       .  S
C174        H180   1.111       .  S
C181        H188   1.084       .  S
C181        C182   1.403       .  A
C181        C186   1.406       .  A
C182        C183   1.417       .  A
C183        C184   1.405       .  A
C183        C190   1.508       .  S
C184        H189   1.084       .  S
C184        C185   1.406       .  A
C185        C186   1.421       .  A
C186        C187   1.509       .  S
C187        H191   1.111       .  S
C187        H192   1.108       .  S
C187        H193   1.110       .  S
C190        H194   1.111       .  S
C190        H195   1.110       .  S
C190        H196   1.111       .  S
C197        H204   1.084       .  S
C197        C198   1.408       .  A
C197        C202   1.402       .  A
C198        C199   1.423       .  A
C199        C200   1.407       .  A
C199        C206   1.508       .  S
C200        H205   1.084       .  S
C200        C201   1.401       .  A
C201        C202   1.413       .  A
C202        C203   1.509       .  S
C203        H207   1.111       .  S
C203        H208   1.111       .  S
C203        H209   1.109       .  S
C206        H210   1.110       .  S
C206        H211   1.110       .  S
C206        H212   1.111       .  S
C213        H220   1.084       .  S
C213        C214   1.406       .  A
C213        C218   1.405       .  A
C214        C215   1.415       .  A
C215        C216   1.404       .  A
C215        C222   1.508       .  S
C216        H221   1.084       .  S
C216        C217   1.407       .  A
C217        C218   1.418       .  A
C218        C771   1.508       .  S
C219        C770   1.509   1_455  S
C219        H223   1.111       .  S
C219        H224   1.110       .  S
C219        H225   1.110       .  S
C222        H226   1.111       .  S
C222        H227   1.109       .  S
C222        H228   1.111       .  S
C229        H236   1.084   1_455  S
C229        C782   1.406   1_455  A
C229        C510   1.401       .  A
C230        C781   1.399       .  A
C230        C507   1.408       .  A
C231        C506   1.410   1_545  A
C231        C784   1.402       .  A
C231        C238   1.508       .  S
C232        H237   1.083       .  S
C232        C233   1.409       .  A
C232        C783   1.401   1_445  A
C233        C234   1.424       .  A
C234        C505   1.402   1_445  A
C234        C511   1.509       .  S
C235        C510   1.507       .  S
C235        H239   1.111       .  S
C235        H516   1.109       .  S
C235        H517   1.110       .  S
C238        H244   1.111       .  S
C238        H518   1.110   1_545  S
C238        H519   1.111   1_545  S
H240        C511   1.110       .  S
H241        C511   1.110       .  S
H242        C514   1.110       .  S
H243        C514   1.110       .  S
C245        H252   1.084       .  S
C245        C246   1.403       .  A
C245        C250   1.404       .  A
C246        C247   1.413       .  A
C247        C248   1.402       .  A
C247        C254   1.508       .  S
C248        H253   1.084       .  S
C248        C249   1.407       .  A
C249        C250   1.417       .  A
C250        C251   1.508       .  S
C251        H255   1.111       .  S
C251        H256   1.110       .  S
C251        H257   1.110       .  S
C254        H258   1.111       .  S
C254        H259   1.110       .  S
C254        H260   1.111       .  S
C261        H268   1.083       .  S
C261        C262   1.403       .  A
C261        C266   1.403       .  A
C262        C263   1.414       .  A
C263        C264   1.406       .  A
C263        C270   1.508       .  S
C264        H269   1.082       .  S
C264        C265   1.408       .  A
C265        C266   1.420       .  A
C266        C543   1.509       .  S
C267        C542   1.508       .  S
C267        H271   1.111   1_565  S
C267        H272   1.111       .  S
C267        H273   1.109   1_565  S
C270        H274   1.111       .  S
C270        H275   1.109       .  S
C270        H276   1.111       .  S
O277        V285   1.896       .  S
O277        C287   1.263       .  A
O278        V285   1.895       .  S
O278        C288   1.262       .  A
O279        V285   1.904       .  S
O279        C289   1.266       .  A
O280        V285   1.905       .  S
O280        C290   1.266       .  A
O281        V286   1.892       .  S
O281        C290   1.263       .  A
O282        V286   1.892       .  S
O282        C289   1.262       .  A
O283        V286   1.898       .  S
O283        C288   1.264       .  A
O284        V286   1.897       .  S
O284        C287   1.264       .  A
V285        V286   2.086       .  T
C287        C522   1.478       .  S
C288        C506   1.470       .  S
C289        C538   1.485       .  S
C290        C490   1.486       .  S
O291        V299   1.901       .  S
O291        C301   1.264       .  A
O292        V299   1.899       .  S
O292        C302   1.264       .  A
O293        V299   1.897       .  S
O293        C303   1.263       .  A
O294        V299   1.898       .  S
O294        C304   1.266       .  A
O295        V300   1.902       .  S
O295        C304   1.264       .  A
O296        V300   1.905       .  S
O296        C303   1.266       .  A
O297        V300   1.895       .  S
O297        C302   1.262       .  A
O298        V300   1.893       .  S
O298        C301   1.264       .  A
V299        V300   2.085       .  T
C301        C525   1.484       .  S
C302        C509   1.475       .  S
C303        C458   1.486       .  S
C304        C477   1.492       .  S
O305        V313   1.898       .  S
O305        C867   1.264       .  A
O306        V313   1.898       .  S
O306        C868   1.263       .  A
O307        V313   1.895       .  S
O307        C317   1.264       .  A
O308        V313   1.894       .  S
O308        C870   1.265       .  A
O309        V314   1.898       .  S
O309        C318   1.263       .  A
O310        V314   1.899       .  S
O310        C869   1.264   1_455  A
O311        V314   1.904       .  S
O311        C316   1.266       .  A
O312        V314   1.904       .  S
O312        C315   1.266       .  A
V313        V866   2.085       .  T
V314        V865   2.084   1_455  T
C315        O857   1.262   1_455  A
C315        C426   1.484       .  S
C316        O858   1.262   1_455  A
C316        C442   1.485       .  S
C317        O862   1.265       .  A
C317        C493   1.485       .  S
C318        O860   1.266       .  A
C318        C410   1.487       .  S
O319        V327   1.896       .  S
O319        C329   1.263       .  A
O320        V327   1.895       .  S
O320        C330   1.262       .  A
O321        V327   1.902       .  S
O321        C331   1.264       .  A
O322        V327   1.900       .  S
O322        C884   1.265   1_455  A
O323        V328   1.901       .  S
O323        C332   1.265       .  A
O324        V328   1.898       .  S
O324        C883   1.266       .  A
O325        V328   1.894       .  S
O325        C882   1.263       .  A
O326        V328   1.896       .  S
O326        C881   1.264       .  A
V327        V880   2.083   1_455  T
V328        V879   2.084       .  T
C329        O878   1.266   1_455  A
C329        C429   1.485       .  S
C330        O877   1.265   1_455  A
C330        C445   1.483       .  S
C331        O876   1.267       .  A
C331        C461   1.494       .  S
C332        O874   1.266       .  A
C332        C394   1.491       .  S
O333        V341   1.900       .  S
O333        C343   1.265       .  A
O334        V341   1.897       .  S
O334        C344   1.264       .  A
O335        V341   1.897   1_556  S
O335        C345   1.264       .  A
O336        V341   1.896       .  S
O337        V342   1.901   1_554  S
O337        C346   1.266       .  A
O338        V342   1.906       .  S
O339        V342   1.896       .  S
O340        V342   1.901       .  S
C343        C378   1.486       .  S
C344        C365   1.477       .  S
C345        C397   1.490       .  S
C346        C541   1.486       .  S
O347        V355   1.901       .  S
O348        V355   1.898       .  S
O349        V355   1.898   1_556  S
O349        C359   1.263       .  A
O350        V355   1.899   1_545  S
O351        V356   1.900   1_554  S
O351        C360   1.264       .  A
O352        V356   1.901       .  S
O353        V356   1.897       .  S
O353        C358   1.263       .  A
O354        V356   1.900       .  S
O354        C357   1.264       .  A
C357        C381   1.483       .  S
C358        C362   1.490       .  S
C359        C413   1.487       .  S
C360        C474   1.481       .  S
C361        H368   1.084   1_655  S
C361        C918   1.403       .  A
C362        C363   1.423       .  A
C363        C364   1.404   1_455  A
C363        C370   1.508       .  S
C364        H369   1.085       .  S
C364        C917   1.398   1_556  A
C365        C916   1.402   1_554  A
C366        C913   1.402       .  A
C366        C367   1.508       .  S
C367        H371   1.111       .  S
C367        H372   1.109       .  S
C367        H373   1.111       .  S
C370        H374   1.110       .  S
C370        H375   1.110       .  S
C370        H376   1.111       .  S
C377        H384   1.084       .  S
C377        C378   1.405       .  A
C377        C382   1.404       .  A
C379        C380   1.406       .  A
C379        C386   1.508       .  S
C380        H385   1.084       .  S
C381        C382   1.416   1_556  A
C382        C383   1.508       .  S
C383        H387   1.111       .  S
C383        H388   1.111       .  S
C383        H389   1.109   1_554  S
C386        H390   1.110   1_556  S
C386        H391   1.110       .  S
C386        H392   1.111       .  S
C393        H400   1.084       .  S
C393        C394   1.408       .  A
C393        C398   1.407       .  A
C394        C395   1.417       .  A
C395        C396   1.405       .  A
C395        C402   1.508       .  S
C396        H401   1.084       .  S
C396        C397   1.407       .  A
C397        C398   1.416       .  A
C398        C399   1.508       .  S
C399        H403   1.111       .  S
C399        H405   1.109       .  S
C402        H406   1.111       .  S
C402        H407   1.109       .  S
C402        H408   1.111       .  S
C409        H416   1.084       .  S
C409        C410   1.404       .  A
C409        C414   1.404       .  A
C410        C411   1.419       .  A
C411        C412   1.405       .  A
C411        C418   1.509       .  S
C412        H417   1.084       .  S
C412        C413   1.404       .  A
C413        C414   1.418       .  A
C414        C415   1.508       .  S
C415        H419   1.111       .  S
C415        H421   1.110       .  S
C418        H422   1.111       .  S
C418        H423   1.110       .  S
C418        H424   1.111       .  S
C425        H432   1.084       .  S
C425        C426   1.403       .  A
C425        C430   1.405       .  A
C426        C979   1.417   1_455  A
C427        C978   1.416       .  A
C427        C428   1.403       .  A
C427        C434   1.508       .  S
C428        H433   1.084       .  S
C428        C981   1.404       .  A
C429        C980   1.404   1_455  A
C429        C430   1.418       .  A
C430        C431   1.508       .  S
C431        H435   1.111       .  S
C431        H436   1.110       .  S
C431        H437   1.110       .  S
C434        H438   1.110       .  S
C434        H439   1.110       .  S
C434        H440   1.111       .  S
C441        H448   1.084       .  S
C441        C446   1.403       .  A
C442        C995   1.420   1_455  A
C443        C994   1.413       .  A
C443        C450   1.508       .  S
C444        H449   1.084       .  S
C444        C997   1.400       .  A
C445        C996   1.404   1_455  A
C445        C446   1.419       .  A
C446        C447   1.507       .  S
C447        H451   1.109       .  S
C447        H452   1.109       .  S
C447        H453   1.111       .  S
C450        H454   1.109       .  S
C450        H455   1.111       .  S
C450        H456   1.111       .  S
C457        H464   1.084       .  S
C457        C458   1.403       .  A
C457        C462   1.408       .  A
C458        C459   1.417       .  A
C459        C460   1.403       .  A
C459        C466   1.508       .  S
C460        H465   1.084       .  S
C460        C461   1.406       .  A
C461        C462   1.421       .  A
C462        C463   1.508       .  S
C463        H467   1.111       .  S
C463        H468   1.108       .  S
C463        H469   1.110       .  S
C466        H470   1.109       .  S
C466        H471   1.110       .  S
C466        H472   1.111       .  S
C473        H480   1.084       .  S
C473        C474   1.402       .  A
C473        C478   1.406       .  A
C474        C475   1.415       .  A
C475        C476   1.403       .  A
C475        C482   1.509       .  S
C476        H481   1.084       .  S
C476        C477   1.407       .  A
C477        C478   1.421       .  A
C478        C479   1.508       .  S
C479        H483   1.111       .  S
C479        H484   1.108       .  S
C479        H485   1.110       .  S
C482        H486   1.110       .  S
C482        H487   1.110       .  S
C482        H488   1.111       .  S
C489        H496   1.084       .  S
C489        C490   1.407       .  A
C489        C494   1.403       .  A
C490        C491   1.415       .  A
C491        C492   1.404       .  A
C491        C498   1.508       .  S
C492        H497   1.084       .  S
C492        C493   1.407       .  A
C493        C494   1.415       .  A
C494       C1047   1.508       .  S
C495       C1046   1.508       .  S
C495        H499   1.111   1_655  S
C495        H500   1.111       .  S
C495        H501   1.109   1_655  S
C498        H502   1.111       .  S
C498        H503   1.109       .  S
C498        H504   1.111       .  S
C505        H512   1.085       .  S
C505       C1058   1.397       .  A
C506       C1057   1.398       .  A
C507       C1060   1.401       .  A
C507        C514   1.508       .  S
C508        H513   1.083       .  S
C508       C1059   1.403   1_455  A
C508        C509   1.400       .  A
C509        C510   1.412       .  A
C511        H515   1.111   1_545  S
C514        H520   1.111       .  S
C521        H528   1.084       .  S
C521        C522   1.404       .  A
C521        C526   1.405       .  A
C522        C523   1.413       .  A
C523        C524   1.401       .  A
C523        C530   1.508       .  S
C524        H529   1.084       .  S
C524        C525   1.406       .  A
C525        C526   1.417       .  A
C526        C527   1.508       .  S
C527        H531   1.111       .  S
C527        H532   1.110       .  S
C527        H533   1.110       .  S
C530        H534   1.111       .  S
C530        H535   1.110       .  S
C530        H536   1.111       .  S
C537        H544   1.083       .  S
C537        C538   1.405       .  A
C537        C542   1.406       .  A
C538        C539   1.417       .  A
C539        C540   1.402       .  A
C539        C546   1.509       .  S
C540        H545   1.083       .  S
C540        C541   1.404       .  A
C541        C542   1.418       .  A
C543        H547   1.111       .  S
C543        H548   1.110       .  S
C543        H549   1.109       .  S
C546        H550   1.111       .  S
C546        H551   1.109       .  S
C546        H552   1.111       .  S
O553        V561   1.895       .  S
O553        C563   1.264       .  A
O554        V561   1.894       .  S
O554        C564   1.262       .  A
O555        V561   1.902       .  S
O555        C565   1.265       .  A
O556        V561   1.902       .  S
O556        C566   1.265       .  A
O557        V562   1.894       .  S
O557        C566   1.264       .  A
O558        V562   1.894       .  S
O558        C565   1.263       .  A
O559        V562   1.898       .  S
O559        C564   1.265       .  A
O560        V562   1.898       .  S
O560        C563   1.264       .  A
V561        V562   2.085       .  T
C563        C798   1.478       .  S
C564        C782   1.484       .  S
C565        C814   1.483       .  S
C566        C766   1.484       .  S
O567        V575   1.902       .  S
O567        C577   1.265       .  A
O568        V575   1.901       .  S
O568        C578   1.267       .  A
O569        V575   1.897       .  S
O569        C579   1.263       .  A
O570        V575   1.899       .  S
O570        C580   1.265       .  A
O571        V576   1.905       .  S
O571        C580   1.266       .  A
O572        V576   1.906       .  S
O572        C579   1.266       .  A
O573        V576   1.892       .  S
O573        C578   1.261       .  A
O574        V576   1.893       .  S
O574        C577   1.264       .  A
V575        V576   2.083       .  T
C577        C801   1.486       .  S
C578        C785   1.489       .  S
C579        C734   1.487       .  S
C580        C753   1.490       .  S
O581        V589   1.893       .  S
O582        V589   1.889       .  S
O583        V589   1.898       .  S
O583        C593   1.265       .  A
O584        V589   1.897   1_455  S
O585        V590   1.900       .  S
O585        C594   1.263       .  A
O586        V590   1.900       .  S
O587        V590   1.906       .  S
O587        C592   1.266       .  A
O588        V590   1.905       .  S
O588        C591   1.267       .  A
C591        C702   1.484       .  S
C592        C718   1.486       .  S
C593        C769   1.488       .  S
C594        C686   1.490       .  S
O595        V603   1.899       .  S
O595        C605   1.264       .  A
O596        V603   1.896       .  S
O596        C606   1.263       .  A
O597        V603   1.905       .  S
O597        C607   1.265       .  A
O598        V603   1.902       .  S
O599        V604   1.904       .  S
O599        C608   1.266       .  A
O600        V604   1.903   1_455  S
O601        V604   1.899       .  S
O602        V604   1.900       .  S
C605        C705   1.487       .  S
C606        C721   1.487       .  S
C607        C737   1.495       .  S
C608        C670   1.491       .  S
O609        V617   1.899       .  S
O609        C619   1.266   1_544  A
O610        V617   1.900       .  S
O610        C620   1.265   1_545  A
O611        V617   1.897   1_556  S
O611        C621   1.264       .  A
O612        V617   1.896   1_565  S
O612        C898   1.263       .  A
O613        V618   1.902   1_554  S
O613        C622   1.266       .  A
O614        V618   1.906       .  S
O614        C897   1.266       .  A
O615        V618   1.895       .  S
O615        C896   1.262   1_556  A
O616        V618   1.897       .  S
O616        C895   1.263   1_556  A
V617        V894   2.084   1_544  T
V618        V893   2.085   1_556  T
C619        O892   1.264       .  A
C619        C654   1.488       .  S
C620        O891   1.263   1_554  A
C620        C641   1.482       .  S
C621        O890   1.265   1_545  A
C621        C673   1.487       .  S
C622        O888   1.263       .  A
C622        C817   1.490       .  S
O623        V631   1.900       .  S
O623        C909   1.265       .  A
O624        V631   1.898       .  S
O624        C910   1.265       .  A
O625        V631   1.894   1_556  S
O625        C635   1.263       .  A
O626        V631   1.897       .  S
O626        C912   1.266       .  A
O627        V632   1.901   1_554  S
O627        C636   1.264       .  A
O628        V632   1.900   1_565  S
O628        C911   1.265       .  A
O629        V632   1.894       .  S
O629        C634   1.262   1_556  A
O630        V632   1.895       .  S
O630        C633   1.263       .  A
V631        V908   2.084   1_554  T
V632        V907   2.083   1_546  T
C633        O899   1.266   1_546  A
C633        C657   1.484   1_545  S
C634        O900   1.266   1_545  A
C634        C638   1.490       .  S
C635        O904   1.265       .  A
C635        C689   1.481       .  S
C636        O902   1.266       .  A
C636        C750   1.492       .  S
C637        H644   1.084       .  S
C637        C914   1.406       .  A
C638        C913   1.409   1_545  A
C638        C639   1.424   1_554  A
C639        C640   1.404       .  A
C639        C646   1.509       .  S
C640        H645   1.085       .  S
C641        C918   1.417       .  A
C642        C917   1.408       .  A
C642        C643   1.508       .  S
C643        H647   1.111       .  S
C643        H648   1.110       .  S
C643        H649   1.111       .  S
C646        H650   1.110       .  S
C646        H651   1.110       .  S
C646        H652   1.111       .  S
C653        H660   1.084       .  S
C653        C654   1.404   1_544  A
C653        C658   1.402       .  A
C654        C931   1.419       .  A
C655        C930   1.419   1_556  A
C655        C656   1.405       .  A
C655        C662   1.508       .  S
C656        H661   1.084       .  S
C656        C933   1.403   1_556  A
C657        C932   1.404       .  A
C657        C658   1.415   1_566  A
C658        C659   1.508       .  S
C659        H663   1.111       .  S
C659        H664   1.111       .  S
C659        H665   1.109   1_554  S
C662        H666   1.111   1_556  S
C662        H667   1.110       .  S
C662        H668   1.111       .  S
C669        H676   1.084       .  S
C669        C670   1.408       .  A
C669        C674   1.407       .  A
C670        C671   1.418       .  A
C671        C672   1.404       .  A
C671        C678   1.509       .  S
C672        H677   1.084       .  S
C672        C673   1.405       .  A
C673        C674   1.415       .  A
C674        C675   1.507       .  S
C675        H679   1.111       .  S
C675        H956   1.110       .  S
C675        H681   1.109   1_545  S
C678        H682   1.110       .  S
C678        H683   1.109   1_655  S
C678        H684   1.111   1_655  S
H680        C951   1.111       .  S
C685        H692   1.084       .  S
C685        C686   1.405       .  A
C685        C690   1.401       .  A
C686        C687   1.421       .  A
C687        C688   1.406       .  A
C687        C694   1.508       .  S
C688        H693   1.084       .  S
C688        C689   1.403       .  A
C689        C690   1.416       .  A
C690        C691   1.509       .  S
C691        H695   1.111       .  S
C691        H972   1.111       .  S
C691        H697   1.110       .  S
C694        H698   1.110       .  S
C694        H699   1.110       .  S
C694        H700   1.111       .  S
H696        C967   1.111       .  S
C701        H708   1.084       .  S
C701        C702   1.403       .  A
C701        C706   1.405       .  A
C703        C704   1.405       .  A
C703        C710   1.508       .  S
C704        H709   1.084       .  S
C705        C706   1.418       .  A
C706        C707   1.508       .  S
C707        H711   1.111       .  S
C707        H712   1.111       .  S
C707        H713   1.110       .  S
C710        H714   1.110       .  S
C710        H715   1.110       .  S
C710        H716   1.111       .  S
C717        H724   1.084   1_545  S
C717        C994   1.401   1_545  A
C717        C722   1.404       .  A
C718        C993   1.406       .  A
C719        C996   1.401       .  A
C719        C726   1.509       .  S
C720        H725   1.084       .  S
C720        C995   1.403   1_545  A
C721        C722   1.420       .  A
C722        C723   1.508       .  S
C723        H727   1.110       .  S
C723        H728   1.110       .  S
C723        H729   1.111       .  S
C726        H730   1.109       .  S
C726        H731   1.111       .  S
C726        H732   1.111       .  S
C733        H740   1.084       .  S
C733        C734   1.404       .  A
C733        C738   1.409       .  A
C734        C735   1.417       .  A
C735        C736   1.402       .  A
C735        C742   1.509       .  S
C736        H741   1.084       .  S
C736        C737   1.406       .  A
C737        C738   1.421       .  A
C738        C739   1.507       .  S
C739        H743   1.111       .  S
C739        H744   1.109       .  S
C739        H745   1.110       .  S
C742        H746   1.111       .  S
C742        H747   1.110       .  S
C742        H748   1.111       .  S
C749        H756   1.084       .  S
C749        C750   1.405       .  A
C749        C754   1.405       .  A
C750        C751   1.420       .  A
C751        C752   1.407       .  A
C751        C758   1.509       .  S
C752        H757   1.084       .  S
C752        C753   1.405       .  A
C753        C754   1.417       .  A
C754        C755   1.507       .  S
C755        H759   1.111       .  S
C755        H760   1.110       .  S
C755        H761   1.109       .  S
C758        H762   1.111       .  S
C758        H763   1.110       .  S
C758        H764   1.111       .  S
C765        H772   1.084       .  S
C765        C766   1.405       .  A
C765        C770   1.403       .  A
C766        C767   1.414       .  A
C767        C768   1.404       .  A
C767        C774   1.508       .  S
C768        H773   1.084       .  S
C768        C769   1.408       .  A
C769        C770   1.419       .  A
C771        H775   1.111       .  S
C771        H776   1.111       .  S
C771        H777   1.109       .  S
C774        H778   1.110       .  S
C774        H779   1.109       .  S
C774        H780   1.111       .  S
C781        H788   1.085       .  S
C781       C1062   1.404       .  A
C782       C1059   1.420       .  A
C783       C1058   1.408       .  A
C783        C790   1.508       .  S
C784        H789   1.084       .  S
C784        C785   1.408       .  A
C785        C786   1.423       .  A
C786       C1057   1.404   1_545  A
C786       C1063   1.509       .  S
C787       C1062   1.509       .  S
C787        H791   1.111       .  S
C787       H1068   1.110       .  S
C787       H1069   1.109       .  S
C790       H1070   1.110       .  S
C790       H1071   1.111       .  S
C790        H796   1.111   1_565  S
H792       C1063   1.110       .  S
H793       C1063   1.109       .  S
H794       C1066   1.110       .  S
H795       C1066   1.110       .  S
C797        H804   1.084       .  S
C797        C798   1.403       .  A
C797        C802   1.404       .  A
C798        C799   1.413       .  A
C799        C800   1.403       .  A
C799        C806   1.508       .  S
C800        H805   1.084       .  S
C800        C801   1.407       .  A
C801        C802   1.417       .  A
C802        C803   1.508       .  S
C803        H807   1.111       .  S
C803        H808   1.110       .  S
C803        H809   1.110       .  S
C806        H810   1.111       .  S
C806        H811   1.109       .  S
C806        H812   1.111       .  S
C813        H820   1.083       .  S
C813        C814   1.403       .  A
C813        C818   1.405       .  A
C814        C815   1.415       .  A
C815        C816   1.404       .  A
C815        C822   1.508       .  S
C816        H821   1.082       .  S
C816        C817   1.407       .  A
C817        C818   1.420       .  A
C818       C1095   1.508       .  S
C819       C1094   1.508       .  S
C819        H823   1.111   1_565  S
C819        H824   1.110       .  S
C819        H825   1.109   1_565  S
C822        H826   1.111       .  S
C822        H827   1.109       .  S
C822        H828   1.111       .  S
O829        V837   1.895       .  S
O829        C839   1.264       .  A
O830        V837   1.893       .  S
O830        C840   1.262       .  A
O831        V837   1.900       .  S
O831        C841   1.265       .  A
O832        V837   1.901       .  S
O832        C842   1.265       .  A
O833        V838   1.898       .  S
O833        C842   1.264       .  A
O834        V838   1.896       .  S
O834        C841   1.264       .  A
O835        V838   1.897       .  S
O835        C840   1.263       .  A
O836        V838   1.897       .  S
O836        C839   1.264       .  A
V837        V838   2.086       .  T
C839       C1074   1.481       .  S
C840       C1058   1.465       .  S
C841       C1090   1.483       .  S
C842       C1042   1.485       .  S
O843        V851   1.900       .  S
O843        C853   1.264       .  A
O844        V851   1.899       .  S
O844        C854   1.266       .  A
O845        V851   1.896       .  S
O845        C855   1.263       .  A
O846        V851   1.898       .  S
O846        C856   1.264       .  A
O847        V852   1.903       .  S
O847        C856   1.265       .  A
O848        V852   1.905       .  S
O848        C855   1.266       .  A
O849        V852   1.894       .  S
O849        C854   1.262       .  A
O850        V852   1.894       .  S
O850        C853   1.264       .  A
V851        V852   2.084       .  T
C853       C1077   1.480       .  S
C854       C1061   1.489       .  S
C855       C1010   1.485       .  S
C856       C1029   1.484       .  S
O857        V865   1.893       .  S
O858        V865   1.891       .  S
O859        V865   1.900       .  S
O859        C869   1.266       .  A
O860        V865   1.900   1_455  S
O861        V866   1.899       .  S
O861        C870   1.264       .  A
O862        V866   1.901       .  S
O863        V866   1.899       .  S
O863        C868   1.264       .  A
O864        V866   1.899       .  S
O864        C867   1.265       .  A
C867        C978   1.484       .  S
C868        C994   1.477       .  S
C869       C1045   1.489       .  S
C870        C962   1.486       .  S
O871        V879   1.902       .  S
O871        C881   1.264       .  A
O872        V879   1.900       .  S
O872        C882   1.264       .  A
O873        V879   1.901       .  S
O873        C883   1.264       .  A
O874        V879   1.904       .  S
O875        V880   1.904       .  S
O875        C884   1.266       .  A
O876        V880   1.900   1_455  S
O877        V880   1.898       .  S
O878        V880   1.901       .  S
C881        C981   1.483       .  S
C882        C997   1.476       .  S
C883       C1013   1.493       .  S
C884        C946   1.494       .  S
O885        V893   1.899       .  S
O885        C895   1.266       .  A
O886        V893   1.898       .  S
O886        C896   1.263       .  A
O887        V893   1.895   1_556  S
O887        C897   1.264       .  A
O888        V893   1.897       .  S
O889        V894   1.901   1_554  S
O889        C898   1.266       .  A
O890        V894   1.905       .  S
O891        V894   1.896       .  S
O892        V894   1.901       .  S
C895        C930   1.487       .  S
C896        C917   1.468       .  S
C897        C949   1.485       .  S
C898       C1093   1.489       .  S
O899        V907   1.905       .  S
O900        V907   1.900       .  S
O901        V907   1.896   1_556  S
O901        C911   1.263       .  A
O902        V907   1.899   1_545  S
O903        V908   1.901   1_554  S
O903        C912   1.264       .  A
O904        V908   1.901       .  S
O905        V908   1.897       .  S
O905        C910   1.263   1_556  A
O906        V908   1.897       .  S
O906        C909   1.263   1_556  A
C909        C933   1.481       .  S
C910        C914   1.485       .  S
C911        C965   1.483       .  S
C912       C1026   1.493       .  S
C913        H920   1.083       .  S
C914        C915   1.418   1_554  A
C915        C916   1.402       .  A
C915        C922   1.508       .  S
C916        H921   1.084       .  S
C918        C919   1.509       .  S
C919        H923   1.111       .  S
C919        H924   1.109   1_554  S
C919        H925   1.111       .  S
C922        H926   1.110       .  S
C922        H927   1.109   1_556  S
C922        H928   1.111       .  S
C929        H936   1.084       .  S
C929        C930   1.405       .  A
C929        C934   1.403       .  A
C931        C932   1.407       .  A
C931        C938   1.508       .  S
C932        H937   1.084       .  S
C933        C934   1.415       .  A
C934        C935   1.508       .  S
C935        H939   1.111       .  S
C935        H940   1.111       .  S
C935        H941   1.109   1_554  S
C938        H942   1.110   1_556  S
C938        H943   1.110       .  S
C938        H944   1.111       .  S
C945        H952   1.083       .  S
C945        C946   1.410       .  A
C945        C950   1.408       .  A
C946        C947   1.419       .  A
C947        C948   1.403       .  A
C947        C954   1.509   1_655  S
C948        H953   1.084       .  S
C948        C949   1.403       .  A
C949        C950   1.413       .  A
C950        C951   1.507       .  S
C951        H955   1.111       .  S
C951        H957   1.109       .  S
C954        H958   1.110       .  S
C954        H959   1.109       .  S
C954        H960   1.111       .  S
C961        H968   1.084       .  S
C961        C962   1.405       .  A
C961        C966   1.402       .  A
C962        C963   1.419       .  A
C963        C964   1.405       .  A
C963        C970   1.508       .  S
C964        H969   1.084       .  S
C964        C965   1.404       .  A
C965        C966   1.417       .  A
C966        C967   1.509       .  S
C967        H971   1.111       .  S
C967        H973   1.110       .  S
C970        H974   1.111       .  S
C970        H975   1.110       .  S
C970        H976   1.111       .  S
C977        H984   1.084       .  S
C977        C978   1.405       .  A
C977        C982   1.405       .  A
C979        C980   1.404       .  A
C979        C986   1.509       .  S
C980        H985   1.084       .  S
C981        C982   1.416       .  A
C982        C983   1.508       .  S
C983        H987   1.111       .  S
C983        H988   1.111       .  S
C983        H989   1.110       .  S
C986        H990   1.111       .  S
C986        H991   1.110       .  S
C986        H992   1.111       .  S
C993       H1000   1.084       .  S
C993        C998   1.405       .  A
C995       C1002   1.509       .  S
C996       H1001   1.084       .  S
C997        C998   1.413       .  A
C998        C999   1.507       .  S
C999       H1003   1.109       .  S
C999       H1004   1.111       .  S
C999       H1005   1.111       .  S
C1002      H1006   1.109       .  S
C1002      H1007   1.111       .  S
C1002      H1008   1.111       .  S
C1009      H1016   1.084       .  S
C1009      C1010   1.403       .  A
C1009      C1014   1.407       .  A
C1010      C1011   1.416       .  A
C1011      C1012   1.403       .  A
C1011      C1018   1.509       .  S
C1012      H1017   1.084       .  S
C1012      C1013   1.406       .  A
C1013      C1014   1.421       .  A
C1014      C1015   1.508       .  S
C1015      H1019   1.111       .  S
C1015      H1020   1.109       .  S
C1015      H1021   1.110       .  S
C1018      H1022   1.111       .  S
C1018      H1023   1.110       .  S
C1018      H1024   1.111       .  S
C1025      H1032   1.084       .  S
C1025      C1026   1.407       .  A
C1025      C1030   1.403       .  A
C1026      C1027   1.421       .  A
C1027      C1028   1.406       .  A
C1027      C1034   1.508       .  S
C1028      H1033   1.084       .  S
C1028      C1029   1.403       .  A
C1029      C1030   1.415       .  A
C1030      C1031   1.508       .  S
C1031      H1035   1.111       .  S
C1031      H1036   1.110       .  S
C1031      H1037   1.109       .  S
C1034      H1038   1.109       .  S
C1034      H1039   1.110       .  S
C1034      H1040   1.111       .  S
C1041      H1048   1.084       .  S
C1041      C1042   1.406       .  A
C1041      C1046   1.406       .  A
C1042      C1043   1.415       .  A
C1043      C1044   1.403       .  A
C1043      C1050   1.508       .  S
C1044      H1049   1.083       .  S
C1044      C1045   1.406       .  A
C1045      C1046   1.418       .  A
C1047      H1051   1.111       .  S
C1047      H1052   1.111       .  S
C1047      H1053   1.109       .  S
C1050      H1054   1.111       .  S
C1050      H1055   1.109       .  S
C1050      H1056   1.111       .  S
C1057      H1064   1.085       .  S
C1059      C1066   1.508       .  S
C1060      H1065   1.083       .  S
C1060      C1061   1.408       .  A
C1061      C1062   1.423       .  A
C1063      H1067   1.111   1_545  S
C1066      H1072   1.111       .  S
C1073      H1080   1.084       .  S
C1073      C1074   1.405       .  A
C1073      C1078   1.403       .  A
C1074      C1075   1.416       .  A
C1075      C1076   1.402       .  A
C1075      C1082   1.508       .  S
C1076      H1081   1.084       .  S
C1076      C1077   1.404       .  A
C1077      C1078   1.415       .  A
C1078      C1079   1.508       .  S
C1079      H1083   1.111       .  S
C1079      H1084   1.111       .  S
C1079      H1085   1.109       .  S
C1082      H1086   1.111       .  S
C1082      H1087   1.110       .  S
C1082      H1088   1.111       .  S
C1089      H1096   1.083       .  S
C1089      C1090   1.404       .  A
C1089      C1094   1.405       .  A
C1090      C1091   1.415       .  A
C1091      C1092   1.403       .  A
C1091      C1098   1.508       .  S
C1092      H1097   1.082       .  S
C1092      C1093   1.407       .  A
C1093      C1094   1.420       .  A
C1095      H1099   1.111       .  S
C1095      H1100   1.110       .  S
C1095      H1101   1.109       .  S
C1098      H1102   1.111       .  S
C1098      H1103   1.109       .  S
C1098      H1104   1.111       .  S
