geometry optimzed in LAMMPS
_audit_creation_date              2020-12-01 
_audit_creation_method            'lammps2cif' 
_symmetry_space_group_name_H-M    'P1' 
_symmetry_Int_Tables_number       1 
_symmetry_cell_setting            triclinic 
loop_ 
_symmetry_equiv_pos_as_xyz 
  x,y,z 
_cell_length_a                    55.40306777 
_cell_length_b                    55.381783170727154 
_cell_length_c                    55.36987906895981 
_cell_angle_alpha                 90.03050104720607 
_cell_angle_beta                  89.95365589669187 
_cell_angle_gamma                 89.9508816078675 
loop_ 
_atom_site_label 
_atom_site_type_symbol 
_atom_site_fract_x 
_atom_site_fract_y 
_atom_site_fract_z 
_atom_site_charge 
O1          O  0.61379187  0.28080819  0.91980791    -0.71900
O2          O  0.60587831  0.25478772  0.85693489    -0.72100
O3          O  0.64102176  0.25413312  0.89003419    -0.71900
O4          O  0.57846207  0.28152018  0.88650300    -0.71900
O5          O  0.59353813  0.31417425  0.87093641    -0.71900
O6          O  0.65630750  0.28703708  0.87508581    -0.71900
O7          O  0.62104822  0.28748452  0.84153322    -0.71900
O8          O  0.62905811  0.31351933  0.90450164    -0.72000
V9          V  0.61005493  0.26849430  0.88805663     1.35200
V10         V  0.62464499  0.29994892  0.87330394     1.35200
C11         C  0.62336116  0.30129203  0.92292272     0.77400
C12         C  0.61214562  0.26666882  0.83849208     0.77400
C13         C  0.65931332  0.26601126  0.88339595     0.77300
C14         C  0.57522750  0.30227741  0.87758218     0.77300
O15         O  0.29570703  0.57106362  0.88767509    -0.71900
O16         O  0.26651401  0.63329311  0.88972744    -0.72100
O17         O  0.26804555  0.59735423  0.85747711    -0.71900
O18         O  0.29417588  0.60715706  0.92012818    -0.71900
O19         O  0.32637001  0.62298338  0.90436666    -0.71900
O20         O  0.30048347  0.61253064  0.84151791    -0.71900
O21         O  0.29886203  0.64883638  0.87396813    -0.71900
O22         O  0.32797749  0.58659100  0.87177485    -0.72000
V23         V  0.28178465  0.60249178  0.88848079     1.35200
V24         V  0.31281322  0.61742609  0.87323756     1.35200
C25         C  0.31667522  0.56812340  0.87904874     0.77400
C26         C  0.27767143  0.65168084  0.88205506     0.77400
C27         C  0.27972128  0.60341551  0.83881339     0.77300
C28         C  0.31460528  0.61693780  0.92300742     0.77300
O29         O  0.38955327  0.34612779  0.84684109    -0.71900
O30         O  0.32651516  0.35332563  0.82078365    -0.72100
O31         O  0.36033257  0.31843447  0.82018714    -0.71900
O32         O  0.35576505  0.38140543  0.84757533    -0.71900
O33         O  0.37097554  0.39666559  0.81482629    -0.71900
O34         O  0.37566153  0.33384004  0.78753697    -0.71900
O35         O  0.34195238  0.36814369  0.78790825    -0.71900
O36         O  0.40482536  0.36192769  0.81434874    -0.72000
V37         V  0.35835410  0.35019803  0.83326530     1.35200
V38         V  0.37306729  0.36491864  0.80184970     1.35200
C39         C  0.40794568  0.35233717  0.83482172     0.77400
C40         C  0.32357562  0.36124618  0.79956740     0.77400
C41         C  0.36858331  0.31545464  0.79907354     0.77300
C42         C  0.36244290  0.39982384  0.83579653     0.77300
O43         O  0.58016722  0.60235061  0.20650797    -0.71900
O44         O  0.64327321  0.59617225  0.23306719    -0.72100
O45         O  0.60940381  0.63047387  0.23337506    -0.71900
O46         O  0.61415463  0.56772978  0.20630541    -0.71900
O47         O  0.63012620  0.58297637  0.17389612    -0.71900
O48         O  0.62391561  0.64594416  0.20036751    -0.71900
O49         O  0.65837171  0.61193106  0.20050544    -0.71900
O50         O  0.59566238  0.61734035  0.17373602    -0.72000
V51         V  0.61200829  0.59943651  0.21915574     1.35200
V52         V  0.62669258  0.61417396  0.18773108     1.35200
C53         C  0.57719704  0.61126514  0.18567482     0.77400
C54         C  0.66155912  0.60352725  0.22148549     0.77400
C55         C  0.61600422  0.64886128  0.22158725     0.77300
C56         C  0.62329712  0.56460343  0.18561834     0.77300
O57         O  0.65476484  0.37877151  0.14331183    -0.71900
O58         O  0.68104724  0.31565493  0.13842432    -0.72100
O59         O  0.68084484  0.35031101  0.17249039    -0.71900
O60         O  0.65531435  0.34391621  0.10896433    -0.71900
O61         O  0.68826384  0.35926417  0.09432088    -0.71900
O62         O  0.71406834  0.36465492  0.15739835    -0.71900
O63         O  0.71407173  0.33049967  0.12339976    -0.71900
O64         O  0.68790521  0.39369931  0.12865101    -0.72000
V65         V  0.66857970  0.34750941  0.14048128     1.35200
V66         V  0.70037090  0.36180696  0.12620704     1.35200
C67         C  0.66701941  0.39705434  0.13730725     0.77400
C68         C  0.70205530  0.31230201  0.13015897     0.77400
C69         C  0.70206010  0.35816605  0.17567089     0.77300
C70         C  0.66777637  0.34993251  0.09075347     0.77300
O71         O  0.35760446  0.64785068  0.10908296    -0.71900
O72         O  0.36378491  0.67233938  0.17301365    -0.72100
O73         O  0.32926755  0.67361477  0.13870984    -0.71900
O74         O  0.39223207  0.64651297  0.14340325    -0.71900
O75         O  0.40748927  0.67977178  0.12939742    -0.71900
O76         O  0.34460064  0.70667561  0.12428175    -0.71900
O77         O  0.37846153  0.70570662  0.15858361    -0.71900
O78         O  0.37337539  0.68076398  0.09481806    -0.72000
V79         V  0.36105800  0.66068757  0.14074632     1.35200
V80         V  0.37573887  0.69253671  0.12702591     1.35200
C81         C  0.36406750  0.66026342  0.09101530     0.77400
C82         C  0.37176871  0.69342653  0.17664010     0.77400
C83         C  0.32620529  0.69483395  0.13080083     0.77300
C84         C  0.41065420  0.65867046  0.13755609     0.77300
O85         O  0.59444131  0.14839344  0.64126661    -0.71900
O86         O  0.65825657  0.17338346  0.63721906    -0.72100
O87         O  0.62275281  0.17399536  0.67056240    -0.71900
O88         O  0.62995265  0.14764181  0.60760611    -0.71900
O89         O  0.61589368  0.18086306  0.59226226    -0.71900
O90         O  0.60875997  0.20717557  0.65499078    -0.71900
O91         O  0.64396194  0.20665592  0.62215084    -0.71900
O92         O  0.58034392  0.18145289  0.62562840    -0.72000
V93         V  0.62605749  0.16144162  0.63879655     1.35200
V94         V  0.61250406  0.19332301  0.62396705     1.35200
C95         C  0.57643917  0.16099865  0.63499810     0.77400
C96         C  0.66189170  0.19452917  0.62940536     0.77400
C97         C  0.61451541  0.19510246  0.67345575     0.77300
C98         C  0.62458085  0.15997317  0.58915695     0.77300
O99         O  0.69174081  0.10227707  0.41931994    -0.71900
O100        O  0.71738448  0.09606450  0.35605727    -0.72100
O101        O  0.71713675  0.13101092  0.38940736    -0.71900
O102        O  0.69219720  0.06729864  0.38580352    -0.71900
O103        O  0.65873479  0.08136545  0.37099682    -0.71900
O104        O  0.68382151  0.14511873  0.37432271    -0.71900
O105        O  0.68377902  0.10968097  0.34113177    -0.71900
O106        O  0.65858129  0.11682028  0.40423503    -0.72000
V107        V  0.70395500  0.09943078  0.38739007     1.35200
V108        V  0.67185691  0.11294403  0.37300327     1.35200
C109        C  0.67089381  0.11100910  0.42252105     0.77400
C110        C  0.70490087  0.10175816  0.33781745     0.77400
C111        C  0.70488217  0.14892112  0.38227551     0.77300
C112        C  0.67132650  0.06343709  0.37746939     0.77300
O113        O  0.37217902  0.07074968  0.70600016    -0.71900
O114        O  0.37741656  0.13348085  0.73331445    -0.72100
O115        O  0.34359944  0.09918319  0.73333105    -0.71900
O116        O  0.40625473  0.10549792  0.70593919    -0.71900
O117        O  0.39061944  0.12213951  0.67408082    -0.71900
O118        O  0.32783627  0.11314047  0.70024202    -0.71900
O119        O  0.36077993  0.14880026  0.70130136    -0.71900
O120        O  0.35749990  0.08608609  0.67307217    -0.72000
V121        V  0.37459992  0.10245516  0.71895396     1.35200
V122        V  0.35952414  0.11720047  0.68775624     1.35200
C123        C  0.36373145  0.06760007  0.68500316     0.77400
C124        C  0.36958957  0.15181025  0.72218306     0.77400
C125        C  0.32505300  0.10522854  0.72147675     0.77300
C126        C  0.40918586  0.11568866  0.68569282     0.77300
O127        O  0.32992596  0.84594193  0.61147290    -0.71900
O128        O  0.30163105  0.85370110  0.67348423    -0.72100
O129        O  0.30182698  0.81876738  0.63973758    -0.71900
O130        O  0.32984079  0.88115941  0.64534308    -0.71900
O131        O  0.29843230  0.89692063  0.62798732    -0.71900
O132        O  0.26947375  0.83467649  0.62433389    -0.71900
O133        O  0.27007726  0.87024401  0.65716637    -0.71900
O134        O  0.29778371  0.86124901  0.59504617    -0.72000
V135        V  0.31521161  0.85025274  0.64217970     1.35200
V136        V  0.28458673  0.86549048  0.62641857     1.35200
C137        C  0.31846053  0.85184749  0.59264214     0.77400
C138        C  0.28097516  0.86315353  0.67592826     0.77400
C139        C  0.28081220  0.81608074  0.63125732     0.77300
C140        C  0.31886262  0.89972816  0.63780018     0.77300
O141        O  0.63227663  0.87664125  0.34690472    -0.71900
O142        O  0.62569987  0.81455546  0.31864637    -0.72100
O143        O  0.65986845  0.84891874  0.31830386    -0.71900
O144        O  0.59795295  0.84210784  0.34719162    -0.71900
O145        O  0.58160599  0.85908561  0.31585650    -0.71900
O146        O  0.64324202  0.86398148  0.28613981    -0.71900
O147        O  0.60861472  0.83053827  0.28718295    -0.71900
O148        O  0.61630357  0.89261589  0.31485473    -0.72000
V149        V  0.62860741  0.84587949  0.33217455     1.35200
V150        V  0.61274123  0.86128750  0.30167049     1.35200
C151        C  0.62561898  0.89526387  0.33552044     0.77400
C152        C  0.61622254  0.81197144  0.29803635     0.77400
C153        C  0.66206400  0.85718710  0.29711709     0.77300
C154        C  0.57919858  0.84937898  0.33638431     0.77300
O155        O  0.40782108  0.78162942  0.38852490    -0.71900
O156        O  0.34420615  0.75681327  0.39435843    -0.72100
O157        O  0.37814923  0.75545631  0.36017556    -0.71900
O158        O  0.37375073  0.78283289  0.42294203    -0.71900
O159        O  0.35970815  0.81606716  0.40761756    -0.71900
O160        O  0.36348596  0.78841234  0.34483987    -0.71900
O161        O  0.32977848  0.79019280  0.37966285    -0.71900
O162        O  0.39349019  0.81449891  0.37270222    -0.72000
V163        V  0.37573147  0.76986580  0.39124432     1.35200
V164        V  0.36193407  0.80167436  0.37651426     1.35200
C165        C  0.41154134  0.80226252  0.37946578     0.77400
C166        C  0.32617682  0.76912958  0.38766088     0.77400
C167        C  0.37119387  0.76709117  0.34181004     0.77300
C168        C  0.36582605  0.80403132  0.42604393     0.77300
O169        O  0.12971764  0.81697375  0.10754826    -0.71900
O170        O  0.12407535  0.79019991  0.17028839    -0.72100
O171        O  0.15830430  0.79013901  0.13590885    -0.71900
O172        O  0.09538356  0.81710619  0.14205973    -0.71900
O173        O  0.08007827  0.78459337  0.12643763    -0.71900
O174        O  0.14289525  0.75732633  0.12100526    -0.71900
O175        O  0.10861470  0.75761488  0.15490163    -0.71900
O176        O  0.11444024  0.78424427  0.09230234    -0.72000
V177        V  0.12655136  0.80300100  0.13863000     1.35200
V178        V  0.11177507  0.77162438  0.12392342     1.35200
C179        C  0.12328981  0.80502358  0.08919767     0.77400
C180        C  0.11559952  0.76922012  0.17324143     0.77400
C181        C  0.16132648  0.76900144  0.12774065     0.77300
C182        C  0.07694131  0.80535565  0.13549015     0.77300
O183        O  0.90644435  0.86109414  0.20330318    -0.71900
O184        O  0.84360254  0.86578180  0.23077024    -0.72100
O185        O  0.87865132  0.83248781  0.23113628    -0.71900
O186        O  0.87116840  0.89455128  0.20309139    -0.71900
O187        O  0.85514254  0.87822132  0.17123923    -0.71900
O188        O  0.86405108  0.81602326  0.19867782    -0.71900
O189        O  0.82835256  0.84903655  0.19877938    -0.71900
O190        O  0.89103534  0.84501244  0.17104092    -0.72000
V191        V  0.87470944  0.86318864  0.21641482     1.35200
V192        V  0.85999956  0.84742999  0.18551715     1.35200
C193        C  0.90949219  0.85185561  0.18261156     0.77400
C194        C  0.82526713  0.85804815  0.21955050     0.77400
C195        C  0.87254631  0.81367484  0.21973997     0.77300
C196        C  0.86121086  0.89701000  0.18271057     0.77300
O197        O  0.15543704  0.84701278  0.90377695    -0.71900
O198        O  0.18167445  0.85580463  0.84100382    -0.72100
O199        O  0.18185007  0.81981720  0.87372924    -0.71900
O200        O  0.15517396  0.88292083  0.87103820    -0.71900
O201        O  0.18822252  0.89773521  0.88599789    -0.71900
O202        O  0.21427361  0.83434303  0.89026328    -0.71900
O203        O  0.21486889  0.86918229  0.85703990    -0.71900
O204        O  0.18775442  0.86275754  0.91941189    -0.72000
V205        V  0.16913161  0.85170738  0.87271882     1.35200
V206        V  0.20060989  0.86575192  0.88789863     1.35200
C207        C  0.16721378  0.85331792  0.92228142     0.77400
C208        C  0.20300193  0.86349711  0.83842274     0.77400
C209        C  0.20266678  0.81630120  0.88240666     0.77300
C210        C  0.16727096  0.90112772  0.87759074     0.77300
O211        O  0.11189000  0.06981883  0.80885013    -0.71900
O212        O  0.10792434  0.13149442  0.77924631    -0.72100
O213        O  0.14158106  0.09703697  0.78172573    -0.71900
O214        O  0.07798140  0.10433570  0.80634442    -0.71900
O215        O  0.09254391  0.11984855  0.83927107    -0.71900
O216        O  0.15594435  0.11437059  0.81382093    -0.71900
O217        O  0.12111053  0.14792932  0.81233620    -0.71900
O218        O  0.12751325  0.08616634  0.84088598    -0.72000
V219        V  0.11008205  0.10095153  0.79469374     1.35200
V220        V  0.12396197  0.11674026  0.82596181     1.35200
C221        C  0.12086257  0.06743152  0.82971422     0.77400
C222        C  0.11391058  0.15023478  0.79081645     0.77400
C223        C  0.15958663  0.10486217  0.79336431     0.77300
C224        C  0.07440841  0.11335720  0.82703090     0.77300
O225        O  0.82183579  0.08122589  0.14070934    -0.71900
O226        O  0.79443020  0.14384598  0.13580371    -0.72100
O227        O  0.79451937  0.10873810  0.16919159    -0.71900
O228        O  0.82184471  0.11657776  0.10710291    -0.71900
O229        O  0.78983414  0.10067101  0.09101119    -0.71900
O230        O  0.76189936  0.09395476  0.15323600    -0.71900
O231        O  0.76217596  0.12855047  0.11959220    -0.71900
O232        O  0.78940179  0.06584943  0.12501819    -0.72000
V233        V  0.80755021  0.11226380  0.13784756     1.35200
V234        V  0.77650067  0.09751246  0.12244218     1.35200
C235        C  0.80997005  0.06276539  0.13443057     0.77400
C236        C  0.77359040  0.14686124  0.12701089     0.77400
C237        C  0.77357062  0.10015183  0.17182582     0.77300
C238        C  0.81031040  0.11042580  0.08843165     0.77300
O239        O  0.88881177  0.14567863  0.86964408    -0.71900
O240        O  0.82690976  0.17383884  0.87609800    -0.72100
O241        O  0.86063534  0.17301933  0.84139299    -0.71900
O242        O  0.85470803  0.14679164  0.90443752    -0.71900
O243        O  0.87063524  0.17927112  0.91953357    -0.71900
O244        O  0.87686113  0.20533460  0.85652086    -0.71900
O245        O  0.84283387  0.20645181  0.89089903    -0.71900
O246        O  0.90491558  0.17787868  0.88517948    -0.72000
V247        V  0.85813888  0.16043436  0.87320896     1.35200
V248        V  0.87359307  0.19157455  0.88772881     1.35200
C249        C  0.90746751  0.15705417  0.87611510     0.77400
C250        C  0.82423019  0.19483501  0.88462645     0.77400
C251        C  0.86940975  0.19385376  0.83824095     0.77300
C252        C  0.86093906  0.15888559  0.92278272     0.77300
O253        O  0.19268331  0.56972147  0.62647121    -0.71900
O254        O  0.21967104  0.63252262  0.62088616    -0.72100
O255        O  0.21960514  0.59808121  0.65496426    -0.71900
O256        O  0.19278759  0.60415978  0.59216178    -0.71900
O257        O  0.16036004  0.62006923  0.60743229    -0.71900
O258        O  0.18674767  0.61285586  0.67044644    -0.71900
O259        O  0.18712257  0.64779177  0.63655705    -0.71900
O260        O  0.15986108  0.58501307  0.64150222    -0.72000
V261        V  0.20550598  0.60139294  0.62387396     1.35200
V262        V  0.17413055  0.61611883  0.63865870     1.35200
C263        C  0.17189927  0.56656834  0.63541943     0.77400
C264        C  0.20802734  0.65089903  0.62789667     0.77400
C265        C  0.20772585  0.60429559  0.67346186     0.77300
C266        C  0.17226997  0.61366663  0.58899537     0.77300
O267        O  0.11509670  0.39644695  0.70500442    -0.71900
O268        O  0.10838090  0.33297213  0.73012796    -0.72100
O269        O  0.14272552  0.36664518  0.73178964    -0.71900
O270        O  0.08048252  0.36237801  0.70367603    -0.71900
O271        O  0.09606680  0.34758908  0.67085166    -0.71900
O272        O  0.15861029  0.35177745  0.69914929    -0.71900
O273        O  0.12384084  0.31820882  0.69722047    -0.71900
O274        O  0.13129439  0.38153818  0.67250760    -0.72000
V275        V  0.11194049  0.36437993  0.71695685     1.35200
V276        V  0.12710478  0.35015969  0.68549943     1.35200
C277        C  0.12491938  0.39980050  0.68465288     0.77400
C278        C  0.11520861  0.31480700  0.71805151     0.77400
C279        C  0.16125072  0.35948814  0.72052057     0.77300
C280        C  0.07751412  0.35361609  0.68280801     0.77300
O281        O  0.13209490  0.64824170  0.40291428    -0.71900
O282        O  0.12324457  0.67352962  0.33976752    -0.72100
O283        O  0.15856847  0.67526467  0.37283428    -0.71900
O284        O  0.09654036  0.64638408  0.36955410    -0.71900
O285        O  0.08065541  0.67897090  0.38454592    -0.71900
O286        O  0.14284302  0.70765340  0.38841673    -0.71900
O287        O  0.10804916  0.70626518  0.35520942    -0.71900
O288        O  0.11564978  0.68046914  0.41808651    -0.72000
V289        V  0.12726905  0.66144525  0.37160442     1.35200
V290        V  0.11204951  0.69265744  0.38629851     1.35200
C291        C  0.12564803  0.66020554  0.42130000     0.77400
C292        C  0.11463539  0.69446908  0.33681711     0.77400
C293        C  0.16130972  0.69640111  0.38103973     0.77300
C294        C  0.07793736  0.65792540  0.37605681     0.77300
O295        O  0.89082503  0.31929409  0.64435273    -0.71900
O296        O  0.82807391  0.29182884  0.63902550    -0.72100
O297        O  0.86295784  0.29160430  0.67254245    -0.71900
O298        O  0.85540457  0.31981024  0.61056606    -0.71900
O299        O  0.87185141  0.28819919  0.59414581    -0.71900
O300        O  0.87724457  0.25896769  0.65606969    -0.71900
O301        O  0.84351466  0.26010319  0.62186227    -0.71900
O302        O  0.90613168  0.28681746  0.62855061    -0.72000
V303        V  0.85966562  0.30507299  0.64124714     1.35200
V304        V  0.87445852  0.27421827  0.62542193     1.35200
C305        C  0.90927475  0.30739228  0.63792003     0.77400
C306        C  0.82517937  0.27109047  0.62984042     0.77400
C307        C  0.87071570  0.27026882  0.67483673     0.77300
C308        C  0.86196967  0.30867833  0.59173559     0.77300
O309        O  0.90716928  0.60142986  0.31083900    -0.71900
O310        O  0.84418838  0.59944706  0.28365435    -0.72100
O311        O  0.88007728  0.63151287  0.28398115    -0.71900
O312        O  0.87100850  0.56898690  0.31052186    -0.71900
O313        O  0.85659539  0.58485830  0.34337224    -0.71900
O314        O  0.86513180  0.64750924  0.31654466    -0.71900
O315        O  0.82939934  0.61466452  0.31668638    -0.71900
O316        O  0.89246982  0.61790498  0.34326521    -0.72000
V317        V  0.87535249  0.60058716  0.29793500     1.35200
V318        V  0.86122966  0.61589221  0.32936688     1.35200
C319        C  0.91063342  0.61061880  0.33147031     0.77400
C320        C  0.82610706  0.60688211  0.29547902     0.77400
C321        C  0.87380620  0.65016904  0.29556467     0.77300
C322        C  0.86198477  0.56618938  0.33133132     0.77300
O323        O  0.82351017  0.38116755  0.37168494    -0.71900
O324        O  0.79735904  0.31815807  0.37814681    -0.72100
O325        O  0.79738673  0.35191861  0.34339780    -0.71900
O326        O  0.82343673  0.34731505  0.40671788    -0.71900
O327        O  0.79022528  0.36194743  0.42155835    -0.71900
O328        O  0.76466100  0.36769679  0.35818500    -0.71900
O329        O  0.76397323  0.33337150  0.39201247    -0.71900
O330        O  0.79094858  0.39647436  0.38729169    -0.72000
V331        V  0.80981472  0.34997346  0.37533631     1.35200
V332        V  0.77812854  0.36461730  0.38953358     1.35200
C333        C  0.81163300  0.39960612  0.37807883     0.77400
C334        C  0.77600330  0.31501582  0.38557900     0.77400
C335        C  0.77644155  0.36037275  0.34003055     0.77300
C336        C  0.81114904  0.35346701  0.42499499     0.77300
C337        C  0.81770002  0.51130725  0.38625824    -0.17900
C338        C  0.81034634  0.48796446  0.39261639    -0.20100
C339        C  0.81989585  0.46774245  0.38063539     0.20600
C340        C  0.83744690  0.47108639  0.36244015    -0.03000
C341        C  0.84465584  0.49464715  0.35583477    -0.06100
C342        C  0.83459795  0.51486514  0.36768344     0.20900
C343        C  0.86147046  0.49796038  0.33696489     0.19000
C344        C  0.87148699  0.47775258  0.32539252    -0.17500
C345        C  0.86456188  0.45443302  0.33211816    -0.19800
C346        C  0.84737398  0.45092271  0.35040806     0.20500
C347        C  0.83950416  0.42763062  0.35641430    -0.32800
C348        C  0.82137575  0.42415673  0.37387385     0.01200
C349        C  0.81182695  0.44430158  0.38611232    -0.24100
C350        C  0.84111656  0.53824971  0.36029285    -0.28700
C351        C  0.85717877  0.54166422  0.34087125     0.06900
C352        C  0.86753568  0.52139862  0.32956790    -0.27400
H353        H  0.80983334  0.52661396  0.39559202     0.11600
H354        H  0.79696549  0.48574487  0.40671759     0.12700
H355        H  0.88447865  0.47998820  0.31093153     0.11800
H356        H  0.87236149  0.43913247  0.32271634     0.11000
H357        H  0.84686672  0.41222909  0.34680177     0.16400
H358        H  0.79794793  0.44175103  0.39968006     0.12300
H359        H  0.83299257  0.55376683  0.36906168     0.15200
H360        H  0.88004395  0.52385694  0.31470609     0.15000
C361        C  0.80428535  0.36406294  0.51362472    -0.17900
C362        C  0.81173595  0.35809661  0.53703912    -0.20100
C363        C  0.83150069  0.34263179  0.54068669     0.20600
C364        C  0.84426014  0.33359711  0.52054258    -0.03000
C365        C  0.83689908  0.33982535  0.49692862    -0.06100
C366        C  0.81657064  0.35480522  0.49344713     0.20900
C367        C  0.84949940  0.33051365  0.47681563     0.19000
C368        C  0.86952931  0.31543004  0.48045208    -0.17500
C369        C  0.87664055  0.30904090  0.50381362    -0.19800
C370        C  0.86395387  0.31776723  0.52394555     0.20500
C371        C  0.87017340  0.31035366  0.54734952    -0.32800
C372        C  0.85717154  0.31876656  0.56746668     0.01200
C373        C  0.83825092  0.33541012  0.56404713    -0.24100
C374        C  0.80855806  0.35974672  0.46988159    -0.28700
C375        C  0.82072787  0.35004234  0.44974753     0.06900
C376        C  0.84148559  0.33587358  0.45341093    -0.27400
H377        H  0.78870791  0.37567140  0.51129779     0.11600
H378        H  0.80174651  0.36521640  0.55229712     0.12700
H379        H  0.87942925  0.30818473  0.46519534     0.11800
H380        H  0.89187089  0.29697645  0.50612179     0.11000
H381        H  0.88485250  0.29764727  0.54988773     0.16400
H382        H  0.82805249  0.34186190  0.57947824     0.12300
H383        H  0.79262388  0.37080432  0.46723517     0.15200
H384        H  0.85096735  0.32828906  0.43804010     0.15000
C385        C  0.96671896  0.65446871  0.38460252    -0.17900
C386        C  0.99019587  0.66133027  0.39074575    -0.20100
C387        C  0.01010260  0.65033160  0.37957025     0.20600
C388        C  0.00635463  0.63175749  0.36251313    -0.03000
C389        C  0.98263057  0.62502724  0.35609489    -0.06100
C390        C  0.96275747  0.63662415  0.36705694     0.20900
C391        C  0.97881140  0.60729531  0.33817158     0.19000
C392        C  0.99875786  0.59576026  0.32756374    -0.17500
C393        C  0.02228404  0.60222722  0.33414186    -0.19800
C394        C  0.02627418  0.62047866  0.35129121     0.20500
C395        C  0.04976273  0.62825872  0.35678032    -0.32800
C396        C  0.05353375  0.64756719  0.37289166     0.01200
C397        C  0.03363016  0.65815442  0.38457361    -0.24100
C398        C  0.93927941  0.63079849  0.35972083    -0.28700
C399        C  0.93531951  0.61398568  0.34110357     0.06900
C400        C  0.95516796  0.60198478  0.33067348    -0.27400
H401        H  0.95163534  0.66350767  0.39320651     0.11600
H402        H  0.99277511  0.67553324  0.40395577     0.12700
H403        H  0.99617159  0.58200687  0.31388833     0.11800
H404        H  0.03737106  0.59332664  0.32540276     0.11000
H405        H  0.06502131  0.62003268  0.34766339     0.16400
H406        H  0.03641160  0.67290049  0.39715058     0.12300
H407        H  0.92410825  0.64020747  0.36778316     0.15200
H408        H  0.95224528  0.58891016  0.31639814     0.15000
C409        C  0.96592138  0.35975555  0.68270546    -0.17900
C410        C  0.98950931  0.36610749  0.68906803    -0.20100
C411        C  0.00930646  0.35508451  0.67768772     0.20600
C412        C  0.00532404  0.33764261  0.65955080    -0.03000
C413        C  0.98149942  0.33105400  0.65329632    -0.06100
C414        C  0.96171226  0.34215769  0.66496113     0.20900
C415        C  0.97750540  0.31304212  0.63572650     0.19000
C416        C  0.99731132  0.30212597  0.62424214    -0.17500
C417        C  0.02090914  0.30881046  0.63028251    -0.19800
C418        C  0.02512733  0.32643517  0.64801063     0.20500
C419        C  0.04876217  0.33261287  0.65483028    -0.32800
C420        C  0.05283806  0.34948196  0.67339778     0.01200
C421        C  0.03298925  0.36081378  0.68452856    -0.24100
C422        C  0.93809820  0.33508406  0.65908565    -0.28700
C423        C  0.93399618  0.31667434  0.64207160     0.06900
C424        C  0.95381317  0.30591141  0.63031009    -0.27400
H425        H  0.95095477  0.36841163  0.69188651     0.11600
H426        H  0.99226981  0.37952685  0.70303878     0.12700
H427        H  0.99455521  0.28826772  0.61070522     0.11800
H428        H  0.03587906  0.29997172  0.62128455     0.11000
H429        H  0.06394250  0.32359341  0.64635621     0.16400
H430        H  0.03596589  0.37381603  0.69886167     0.12300
H431        H  0.92295190  0.34330691  0.66839285     0.15200
H432        H  0.95081047  0.29172480  0.61715557     0.15000
C433        C  0.17216458  0.60880879  0.47724764    -0.17900
C434        C  0.17876090  0.60234998  0.50074881    -0.20100
C435        C  0.16722808  0.61292415  0.52070549     0.20600
C436        C  0.14865270  0.62996090  0.51696351    -0.03000
C437        C  0.14215528  0.63665417  0.49323913    -0.06100
C438        C  0.15402171  0.62604835  0.47330487     0.20900
C439        C  0.12412398  0.65426919  0.48949348     0.19000
C440        C  0.11238395  0.66462552  0.50944630    -0.17500
C441        C  0.11866684  0.65782335  0.53295273    -0.19800
C442        C  0.13690141  0.64066501  0.53691245     0.20500
C443        C  0.14399452  0.63446297  0.56044718    -0.32800
C444        C  0.16301475  0.61805528  0.56430203     0.01200
C445        C  0.17432296  0.60714953  0.54431636    -0.24100
C446        C  0.14788806  0.63321270  0.44980556    -0.28700
C447        C  0.13039051  0.65120156  0.44596378     0.06900
C448        C  0.11845726  0.66152249  0.46589561    -0.27400
H449        H  0.18146999  0.60052286  0.46214313     0.11600
H450        H  0.19303793  0.58922229  0.50331887     0.12700
H451        H  0.09846646  0.67813498  0.50687860     0.11800
H452        H  0.10947407  0.66622986  0.54805731     0.11000
H453        H  0.13528667  0.64306794  0.57573917     0.16400
H454        H  0.18894502  0.59444029  0.54712510     0.12300
H455        H  0.15729563  0.62533007  0.43453421     0.15200
H456        H  0.10490820  0.67536397  0.46305147     0.15000
C457        C  0.10711741  0.48749992  0.68129340    -0.17900
C458        C  0.11339538  0.51083076  0.67380600    -0.20100
C459        C  0.13409868  0.51468082  0.65966609     0.20600
C460        C  0.14831321  0.49473908  0.65257130    -0.03000
C461        C  0.14186503  0.47119996  0.65992517    -0.06100
C462        C  0.12134388  0.46757998  0.67463010     0.20900
C463        C  0.15622739  0.45134597  0.65289992     0.19000
C464        C  0.17683087  0.45512345  0.63867027    -0.17500
C465        C  0.18334052  0.47843174  0.63159585    -0.19800
C466        C  0.16927621  0.49833463  0.63853650     0.20500
C467        C  0.17621294  0.52179904  0.63218632    -0.32800
C468        C  0.16258405  0.54186431  0.63972650     0.01200
C469        C  0.14123556  0.53812495  0.65305624    -0.24100
C470        C  0.11565245  0.44416482  0.68263417    -0.28700
C471        C  0.12993657  0.42435511  0.67560442     0.06900
C472        C  0.14998513  0.42808276  0.66052192    -0.27400
H473        H  0.09124132  0.48506176  0.69245927     0.11600
H474        H  0.10224160  0.52592009  0.67938725     0.12700
H475        H  0.18807275  0.44005156  0.63321037     0.11800
H476        H  0.19950076  0.48091279  0.62085350     0.11000
H477        H  0.19264466  0.52445550  0.62188832     0.16400
H478        H  0.13063576  0.55347815  0.65901405     0.12300
H479        H  0.10015209  0.44132815  0.69424605     0.15200
H480        H  0.16121170  0.41289226  0.65530610     0.15000
C481        C  0.86434574  0.19781706  0.72639661    -0.17900
C482        C  0.86381447  0.18714096  0.74929483    -0.20100
C483        C  0.86709456  0.20121721  0.77012447     0.20600
C484        C  0.87071156  0.22634399  0.76786933    -0.03000
C485        C  0.87092087  0.23715974  0.74479898    -0.06100
C486        C  0.86796842  0.22277889  0.72395310     0.20900
C487        C  0.87406212  0.26235813  0.74261363     0.19000
C488        C  0.87714347  0.27646901  0.76343074    -0.17500
C489        C  0.87728062  0.26570667  0.78625996    -0.19800
C490        C  0.87410322  0.24069041  0.78865753     0.20500
C491        C  0.87413697  0.22981404  0.81149527    -0.32800
C492        C  0.87038233  0.20482683  0.81393129     0.01200
C493        C  0.86677922  0.19064325  0.79315792    -0.24100
C494        C  0.86858017  0.23364426  0.70106736    -0.28700
C495        C  0.87148540  0.25875767  0.69882716     0.06900
C496        C  0.87403579  0.27301179  0.71966184    -0.27400
H497        H  0.86189006  0.18654593  0.71058913     0.11600
H498        H  0.86095229  0.16784175  0.75070551     0.12700
H499        H  0.87955896  0.29583255  0.76204886     0.11800
H500        H  0.87980605  0.27697159  0.80206219     0.11000
H501        H  0.87666862  0.24090620  0.82743261     0.16400
H502        H  0.86384163  0.17137250  0.79490658     0.12300
H503        H  0.86622166  0.22266333  0.68502469     0.15200
H504        H  0.87622987  0.29239292  0.71797027     0.15000
C505        C  0.86779391  0.16702415  0.01137321    -0.17900
C506        C  0.86088956  0.15997850  0.03462456    -0.20100
C507        C  0.84465600  0.14081723  0.03791771     0.20600
C508        C  0.83540151  0.12851084  0.01762237    -0.03000
C509        C  0.84256189  0.13544662  0.99419771    -0.06100
C510        C  0.85871025  0.15489843  0.99106123     0.20900
C511        C  0.83327442  0.12313737  0.97392167     0.19000
C512        C  0.81692554  0.10408878  0.97720353    -0.17500
C513        C  0.80964081  0.09737287  0.00040822    -0.19800
C514        C  0.81869965  0.10951288  0.02069631     0.20500
C515        C  0.81100751  0.10327158  0.04396621    -0.32800
C516        C  0.82001429  0.11557148  0.06421291     0.01200
C517        C  0.83711908  0.13406215  0.06110626    -0.24100
C518        C  0.86518526  0.16210243  0.96766517    -0.28700
C519        C  0.85586686  0.14997953  0.94738479     0.06900
C520        C  0.84014602  0.13034980  0.95068943    -0.27400
H521        H  0.88017149  0.18201463  0.00927309     0.11600
H522        H  0.86806979  0.16966971  0.05002916     0.12700
H523        H  0.80959151  0.09452037  0.96179607     0.11800
H524        H  0.79681509  0.08276017  0.00248081     0.11000
H525        H  0.79782802  0.08900187  0.04631931     0.16400
H526        H  0.84390529  0.14378836  0.07668405     0.12300
H527        H  0.87723292  0.17732581  0.96524415     0.15200
H528        H  0.83266571  0.12109980  0.93514449     0.15000
C529        C  0.11792596  0.20293662  0.71894503    -0.17900
C530        C  0.11838266  0.22605681  0.70876219    -0.20100
C531        C  0.11593564  0.24659795  0.72343597     0.20600
C532        C  0.11309393  0.24383169  0.74861442    -0.03000
C533        C  0.11292847  0.22056566  0.75890000    -0.06100
C534        C  0.11519744  0.20000308  0.74397933     0.20900
C535        C  0.11059772  0.21791246  0.78414073     0.19000
C536        C  0.10821521  0.23840678  0.79882976    -0.17500
C537        C  0.10808766  0.26143902  0.78860894    -0.19800
C538        C  0.11052999  0.26431995  0.76357215     0.20500
C539        C  0.11065908  0.28737118  0.75329683    -0.32800
C540        C  0.11376402  0.29031137  0.72830954     0.01200
C541        C  0.11641365  0.26986148  0.71344657    -0.24100
C542        C  0.11488391  0.17692509  0.75442177    -0.28700
C543        C  0.11289067  0.17428264  0.77959449     0.06900
C544        C  0.11080421  0.19482044  0.79430870    -0.27400
H545        H  0.11980185  0.18735207  0.70725130     0.11600
H546        H  0.12061006  0.22787192  0.68940495     0.12700
H547        H  0.10641695  0.23661829  0.81823379     0.11800
H548        H  0.10618953  0.27701796  0.80030757     0.11000
H549        H  0.10885469  0.30307841  0.76485873     0.16400
H550        H  0.11881875  0.27205125  0.69413794     0.12300
H551        H  0.11676510  0.16107623  0.74306738     0.15200
H552        H  0.10920282  0.19280483  0.81372380     0.15000
C553        C  0.96278110  0.10564921  0.82892884    -0.17900
C554        C  0.98627586  0.10001597  0.82151828    -0.20100
C555        C  0.00622150  0.11050737  0.83308601     0.20600
C556        C  0.00247130  0.12631203  0.85274680    -0.03000
C557        C  0.97878792  0.13217847  0.86006362    -0.06100
C558        C  0.95885402  0.12200699  0.84790718     0.20900
C559        C  0.97508241  0.14886693  0.87899116     0.19000
C560        C  0.99499613  0.15873428  0.89109058    -0.17500
C561        C  0.01845658  0.15271871  0.88401595    -0.19800
C562        C  0.02236424  0.13684758  0.86464432     0.20500
C563        C  0.04580684  0.13185417  0.85658048    -0.32800
C564        C  0.04968251  0.11681421  0.83648319     0.01200
C565        C  0.02980957  0.10594795  0.82500244    -0.24100
C566        C  0.93540355  0.12913764  0.85429684    -0.28700
C567        C  0.93172263  0.14680310  0.87219296     0.06900
C568        C  0.95158227  0.15611666  0.88487290    -0.27400
H569        H  0.94767373  0.09763788  0.81944863     0.11600
H570        H  0.98883762  0.08773498  0.80649103     0.12700
H571        H  0.99243113  0.17146056  0.90574236     0.11800
H572        H  0.03355634  0.16087886  0.89337965     0.11000
H573        H  0.06101620  0.14032061  0.86550800     0.16400
H574        H  0.03267601  0.09419282  0.80960060     0.12300
H575        H  0.92011698  0.12191172  0.84445323     0.15200
H576        H  0.94878059  0.16954027  0.89886281     0.15000
C577        C  0.10597144  0.97985492  0.82828184    -0.17900
C578        C  0.11237598  0.95648939  0.83527669    -0.20100
C579        C  0.13058700  0.95280728  0.85247222     0.20600
C580        C  0.14195767  0.97283300  0.86333780    -0.03000
C581        C  0.13527410  0.99643296  0.85649883    -0.06100
C582        C  0.11754514  0.99989608  0.83852567     0.20900
C583        C  0.14690455  0.01650355  0.86701737     0.19000
C584        C  0.16472303  0.01280461  0.88464656    -0.17500
C585        C  0.17156705  0.98937709  0.89121188    -0.19800
C586        C  0.16055761  0.96927567  0.88039345     0.20500
C587        C  0.16832164  0.94571833  0.88569385    -0.32800
C588        C  0.15750002  0.92573856  0.87433700     0.01200
C589        C  0.13819872  0.92943722  0.85830368    -0.24100
C590        C  0.11227697  0.02327419  0.83050272    -0.28700
C591        C  0.12436739  0.04327219  0.84030962     0.06900
C592        C  0.14113893  0.03984192  0.85906391    -0.27400
H593        H  0.09225248  0.98223747  0.81455051     0.11600
H594        H  0.10346709  0.94127008  0.82681513     0.12700
H595        H  0.17377377  0.02802898  0.89294666     0.11800
H596        H  0.18576256  0.98698237  0.90444438     0.11000
H597        H  0.18309802  0.94295975  0.89821685     0.16400
H598        H  0.12980577  0.91413494  0.84944363     0.12300
H599        H  0.09917240  0.02586065  0.81619947     0.15200
H600        H  0.15054401  0.05522763  0.86666811     0.15000
C601        C  0.87500176  0.73910849  0.30291990    -0.17900
C602        C  0.87508317  0.76200679  0.29227195    -0.20100
C603        C  0.87575941  0.76442894  0.26705172     0.20600
C604        C  0.87669517  0.74358484  0.25240324    -0.03000
C605        C  0.87693868  0.72048704  0.26316098    -0.06100
C606        C  0.87580049  0.71825325  0.28853467     0.20900
C607        C  0.87795036  0.69964925  0.24851525     0.19000
C608        C  0.87875351  0.70207388  0.22329527    -0.17500
C609        C  0.87819845  0.72495475  0.21262677    -0.19800
C610        C  0.87703099  0.74579533  0.22700463     0.20500
C611        C  0.87587603  0.76877894  0.21643947    -0.32800
C612        C  0.87481784  0.78959733  0.23093382     0.01200
C613        C  0.87512342  0.78730364  0.25621988    -0.24100
C614        C  0.87512258  0.69521913  0.29905057    -0.28700
C615        C  0.87592128  0.67438340  0.28455388     0.06900
C616        C  0.87770805  0.67675479  0.25932001    -0.27400
H617        H  0.87418586  0.73770950  0.32242204     0.11600
H618        H  0.87434017  0.77783081  0.30376566     0.12700
H619        H  0.87952482  0.68625153  0.21180144     0.11800
H620        H  0.87855184  0.72634505  0.19310975     0.11000
H621        H  0.87579767  0.77048145  0.19693149     0.16400
H622        H  0.87415550  0.80330693  0.26746951     0.12300
H623        H  0.87386519  0.69350005  0.31851567     0.15200
H624        H  0.87817685  0.66076215  0.24802663     0.15000
C625        C  0.86811567  0.00828511  0.17451012    -0.17900
C626        C  0.87521555  0.98506322  0.18147324    -0.20100
C627        C  0.86223247  0.96477962  0.17362702     0.20600
C628        C  0.84201657  0.96790278  0.15843478    -0.03000
C629        C  0.83470669  0.99134368  0.15162109    -0.06100
C630        C  0.84782550  0.01161966  0.15971242     0.20900
C631        C  0.81406671  0.99448845  0.13703021     0.19000
C632        C  0.80110193  0.97420780  0.12915371    -0.17500
C633        C  0.80848829  0.95096945  0.13569621    -0.19800
C634        C  0.82885961  0.94763769  0.15036242     0.20500
C635        C  0.83599351  0.92443339  0.15750948    -0.32800
C636        C  0.85569743  0.92124808  0.17315855     0.01200
C637        C  0.86882175  0.94147382  0.18105533    -0.24100
C638        C  0.84016244  0.03488088  0.15324653    -0.28700
C639        C  0.81934275  0.03817926  0.13907319     0.06900
C640        C  0.80650906  0.01785760  0.13089547    -0.27400
H641        H  0.87835828  0.02366628  0.18091107     0.11600
H642        H  0.89078592  0.98297759  0.19311593     0.12700
H643        H  0.78518228  0.97632308  0.11799832     0.11800
H644        H  0.79812471  0.93559960  0.12946317     0.11000
H645        H  0.82562609  0.90890208  0.15164914     0.16400
H646        H  0.88401769  0.93906825  0.19314553     0.12300
H647        H  0.85004332  0.05043561  0.15982414     0.15200
H648        H  0.79039275  0.02022045  0.12005868     0.15000
C649        C  0.10953956  0.69732725  0.22522732    -0.17900
C650        C  0.10959536  0.68675147  0.24814691    -0.20100
C651        C  0.11129678  0.70117427  0.26891264     0.20600
C652        C  0.11286247  0.72652003  0.26658180    -0.03000
C653        C  0.11315114  0.73715197  0.24347748    -0.06100
C654        C  0.11139840  0.72246892  0.22272588     0.20900
C655        C  0.11536998  0.76244315  0.24115515     0.19000
C656        C  0.11694334  0.77688383  0.26190653    -0.17500
C657        C  0.11633372  0.76636942  0.28482736    -0.19800
C658        C  0.11435391  0.74124213  0.28732713     0.20500
C659        C  0.11414923  0.73056200  0.31021289    -0.32800
C660        C  0.11311143  0.70533861  0.31263834     0.01200
C661        C  0.11169137  0.69071861  0.29195895    -0.24100
C662        C  0.11174568  0.73317149  0.19983636    -0.28700
C663        C  0.11427464  0.75830601  0.19742058     0.06900
C664        C  0.11610387  0.77283437  0.21812623    -0.27400
H665        H  0.10821762  0.68582746  0.20944653     0.11600
H666        H  0.10833488  0.66728514  0.24963233     0.12700
H667        H  0.11864252  0.79631670  0.26040896     0.11800
H668        H  0.11758074  0.77787971  0.30060740     0.11000
H669        H  0.11551988  0.74185526  0.32615847     0.16400
H670        H  0.11083337  0.67125005  0.29383434     0.12300
H671        H  0.11052613  0.72187894  0.18388255     0.15200
H672        H  0.11798582  0.79223676  0.21631633     0.15000
C673        C  0.16352395  0.86136335  0.03345499    -0.17900
C674        C  0.16989251  0.86803299  0.00996358    -0.20100
C675        C  0.16015682  0.85573931  0.99007196     0.20600
C676        C  0.14348048  0.83685780  0.99382019    -0.03000
C677        C  0.13725680  0.82997375  0.01749865    -0.06100
C678        C  0.14745756  0.84220053  0.03739584     0.20900
C679        C  0.12132315  0.81046625  0.02124930     0.19000
C680        C  0.11125755  0.79844868  0.00135865    -0.17500
C681        C  0.11725035  0.80542914  0.97786715    -0.19800
C682        C  0.13350241  0.82443086  0.97393019     0.20500
C683        C  0.14048855  0.83075589  0.95047790    -0.32800
C684        C  0.15776316  0.84890472  0.94670582     0.01200
C685        C  0.16728274  0.86155673  0.96652574    -0.24100
C686        C  0.14195626  0.83460039  0.06086896    -0.28700
C687        C  0.12678971  0.81464043  0.06467060     0.06900
C688        C  0.11622962  0.80290735  0.04481083    -0.27400
H689        H  0.17148883  0.87092283  0.04855170     0.11600
H690        H  0.18265934  0.88261204  0.00735770     0.12700
H691        H  0.09897028  0.78346364  0.00397241     0.11800
H692        H  0.10947565  0.79570638  0.96277552     0.11000
H693        H  0.13325811  0.82084899  0.93521778     0.16400
H694        H  0.18054164  0.87565374  0.96363280     0.12300
H695        H  0.15020617  0.84365777  0.07613525     0.15200
H696        H  0.10440877  0.78757831  0.04766578     0.15000
C697        C  0.96524736  0.80492516  0.13141516    -0.17900
C698        C  0.98872051  0.79826906  0.12489790    -0.20100
C699        C  0.00865801  0.81068122  0.13435781     0.20600
C700        C  0.00489972  0.83042180  0.15005132    -0.03000
C701        C  0.98118405  0.83698549  0.15684718    -0.06100
C702        C  0.96130684  0.82401554  0.14762438     0.20900
C703        C  0.97741607  0.85600600  0.17342061     0.19000
C704        C  0.99734795  0.86893457  0.18223267    -0.17500
C705        C  0.02083780  0.86260816  0.17528088    -0.19800
C706        C  0.02483595  0.84311005  0.15954450     0.20500
C707        C  0.04838809  0.83555411  0.15379686    -0.32800
C708        C  0.05225897  0.81516807  0.13905870     0.01200
C709        C  0.03226097  0.80319052  0.12899990    -0.24100
C710        C  0.93788692  0.82984487  0.15531727    -0.28700
C711        C  0.93403028  0.84804462  0.17262778     0.06900
C712        C  0.95387131  0.86128415  0.18137066    -0.27400
H713        H  0.95017754  0.79481095  0.12414576     0.11600
H714        H  0.99129139  0.78314059  0.11274438     0.12700
H715        H  0.99479804  0.88370930  0.19481623     0.11800
H716        H  0.03591709  0.87263191  0.18265308     0.11000
H717        H  0.06366808  0.84494446  0.16160100     0.16400
H718        H  0.03503835  0.78761611  0.11745358     0.12300
H719        H  0.92272302  0.81946959  0.14859715     0.15200
H720        H  0.95101366  0.87543234  0.19460916     0.15000
C721        C  0.23727292  0.77831905  0.38957632    -0.17900
C722        C  0.21417554  0.76811593  0.38853403    -0.20100
C723        C  0.21130250  0.74306018  0.38591961     0.20600
C724        C  0.23192023  0.72815254  0.38431608    -0.03000
C725        C  0.25519498  0.73839471  0.38574304    -0.06100
C726        C  0.25789465  0.76362130  0.38823961     0.20900
C727        C  0.27575288  0.72337092  0.38458786     0.19000
C728        C  0.27292485  0.69838037  0.38162497    -0.17500
C729        C  0.24989281  0.68828253  0.37988329    -0.19800
C730        C  0.22931258  0.70298279  0.38131455     0.20500
C731        C  0.20618697  0.69289251  0.37994686    -0.32800
C732        C  0.18554243  0.70751507  0.38199693     0.01200
C733        C  0.18822211  0.73261744  0.38494571    -0.24100
C734        C  0.28115964  0.77365978  0.38915266    -0.28700
C735        C  0.30167733  0.75870762  0.38813350     0.06900
C736        C  0.29880513  0.73359193  0.38613379    -0.27400
H737        H  0.23900597  0.79771152  0.39149565     0.11600
H738        H  0.19855021  0.77983623  0.38972244     0.12700
H739        H  0.28854508  0.68663967  0.38056900     0.11800
H740        H  0.24817301  0.66893242  0.37755493     0.11000
H741        H  0.20426620  0.67354057  0.37769112     0.16400
H742        H  0.17236682  0.74402462  0.38630097     0.12300
H743        H  0.28332405  0.79305521  0.39068831     0.15200
H744        H  0.31457635  0.72203467  0.38501266     0.15000
C745        C  0.77336915  0.86577080  0.29168688    -0.17900
C746        C  0.75060779  0.86523915  0.30260421    -0.20100
C747        C  0.72975223  0.86205884  0.28861109     0.20600
C748        C  0.73182515  0.85951655  0.26332021    -0.03000
C749        C  0.75485298  0.85968081  0.25233373    -0.06100
C750        C  0.77569472  0.86287806  0.26661451     0.20900
C751        C  0.75702698  0.85645132  0.22713439     0.19000
C752        C  0.73612054  0.85351570  0.21311278    -0.17500
C753        C  0.71327045  0.85370986  0.22395621    -0.19800
C754        C  0.71092769  0.85662323  0.24904380     0.20500
C755        C  0.68811272  0.85647735  0.26014957    -0.32800
C756        C  0.68599822  0.85852647  0.28539619     0.01200
C757        C  0.70689315  0.86124291  0.29949313    -0.24100
C758        C  0.79852512  0.86285552  0.25565134    -0.28700
C759        C  0.80093001  0.85917303  0.23063304     0.06900
C760        C  0.78006070  0.85602992  0.21646797    -0.27400
H761        H  0.78919581  0.86823191  0.30290161     0.11600
H762        H  0.74931955  0.86729905  0.32202384     0.12700
H763        H  0.73743981  0.85104981  0.19374282     0.11800
H764        H  0.69742894  0.85140351  0.21273010     0.11000
H765        H  0.67204091  0.85415855  0.24923443     0.16400
H766        H  0.70531868  0.86294160  0.31894190     0.12300
H767        H  0.81449306  0.86517470  0.26671513     0.15200
H768        H  0.78174186  0.85330644  0.19714994     0.15000
C769        C  0.46843242  0.86103520  0.34390301    -0.17900
C770        C  0.49202572  0.86775800  0.33792236    -0.20100
C771        C  0.51174223  0.85425993  0.34635253     0.20600
C772        C  0.50770552  0.83433575  0.36171332    -0.03000
C773        C  0.48388839  0.82739454  0.36753030    -0.06100
C774        C  0.46416659  0.84061437  0.35828464     0.20900
C775        C  0.47982089  0.80675928  0.38190644     0.19000
C776        C  0.49956556  0.79384757  0.39114362    -0.17500
C777        C  0.52317005  0.80085448  0.38556534    -0.19800
C778        C  0.52741715  0.82079381  0.37052520     0.20500
C779        C  0.55094476  0.82680281  0.36333171    -0.32800
C780        C  0.55494592  0.84570877  0.34687628     0.01200
C781        C  0.53532847  0.85973715  0.33893704    -0.24100
C782        C  0.44055178  0.83276033  0.36295536    -0.28700
C783        C  0.43637737  0.81163117  0.37643152     0.06900
C784        C  0.45611532  0.79899657  0.38622229    -0.27400
H785        H  0.45349595  0.87147425  0.33679105     0.11600
H786        H  0.49482840  0.88322604  0.32628101     0.12700
H787        H  0.49674914  0.77805376  0.40233510     0.11800
H788        H  0.53809912  0.79031194  0.39253743     0.11000
H789        H  0.56600510  0.81591844  0.36948706     0.16400
H790        H  0.53836596  0.87450741  0.32645544     0.12300
H791        H  0.42545412  0.84267782  0.35542435     0.15200
H792        H  0.45306472  0.78283580  0.39683006     0.15000
C793        C  0.27472058  0.85442145  0.78714576    -0.17900
C794        C  0.28567195  0.85427280  0.76441666    -0.20100
C795        C  0.27231201  0.86013444  0.74372175     0.20600
C796        C  0.24767623  0.86627806  0.74591624    -0.03000
C797        C  0.23653443  0.86612721  0.76883367    -0.06100
C798        C  0.25019758  0.86025471  0.78951123     0.20900
C799        C  0.21171594  0.87158744  0.77102653     0.19000
C800        C  0.19843385  0.87769298  0.75033238    -0.17500
C801        C  0.20956873  0.87813732  0.72762679    -0.19800
C802        C  0.23412067  0.87228107  0.72520530     0.20500
C803        C  0.24526818  0.87192204  0.70242423    -0.32800
C804        C  0.26969474  0.86527349  0.70006775     0.01200
C805        C  0.28311172  0.85962018  0.72085130    -0.24100
C806        C  0.23906540  0.86006584  0.81218451    -0.28700
C807        C  0.21431404  0.86498702  0.81444428     0.06900
C808        C  0.20065271  0.87065746  0.79384427    -0.27400
H809        H  0.28539714  0.84979172  0.80286814     0.11600
H810        H  0.30459262  0.84950433  0.76301484     0.12700
H811        H  0.17941130  0.88204504  0.75169359     0.11800
H812        H  0.19890430  0.88281060  0.71191232     0.11000
H813        H  0.23477219  0.87624902  0.68648755     0.16400
H814        H  0.30195236  0.85456722  0.71922518     0.12300
H815        H  0.24953818  0.85543913  0.82806813     0.15200
H816        H  0.18155284  0.87455039  0.79564343     0.15000
C817        C  0.27911720  0.70454459  0.62206457    -0.17900
C818        C  0.28931948  0.72762657  0.62315413    -0.20100
C819        C  0.27459468  0.74810159  0.62577257     0.20600
C820        C  0.24930638  0.74532530  0.62702372    -0.03000
C821        C  0.23903132  0.72199757  0.62626797    -0.06100
C822        C  0.25402631  0.70151465  0.62381965     0.20900
C823        C  0.21380117  0.71917147  0.62829407     0.19000
C824        C  0.19904232  0.73967329  0.63045684    -0.17500
C825        C  0.20919306  0.76280060  0.63085878    -0.19800
C826        C  0.23429792  0.76582350  0.62930479     0.20500
C827        C  0.24467192  0.78894211  0.63022043    -0.32800
C828        C  0.26988371  0.79178397  0.62950064     0.01200
C829        C  0.28471656  0.77127475  0.62731035    -0.24100
C830        C  0.24371310  0.67836127  0.62361743    -0.28700
C831        C  0.21864422  0.67537803  0.62638268     0.06900
C832        C  0.20380224  0.69590023  0.62848875    -0.27400
H833        H  0.29088933  0.68902706  0.62015085     0.11600
H834        H  0.30875826  0.72945686  0.62203853     0.12700
H835        H  0.17963176  0.73781728  0.63195749     0.11800
H836        H  0.19740912  0.77832573  0.63262649     0.11000
H837        H  0.23317320  0.80469019  0.63204078     0.16400
H838        H  0.30415692  0.77339274  0.62655372     0.12300
H839        H  0.25527567  0.66263816  0.62201828     0.15200
H840        H  0.18444626  0.69375753  0.63040528     0.15000
C841        C  0.31975976  0.86806489  0.50505874    -0.17900
C842        C  0.32694220  0.86174614  0.48167805    -0.20100
C843        C  0.34259176  0.84217089  0.47788688     0.20600
C844        C  0.35178115  0.82935264  0.49790295    -0.03000
C845        C  0.34475095  0.83590928  0.52152659    -0.06100
C846        C  0.32828347  0.85505181  0.52504727     0.20900
C847        C  0.35361490  0.82285124  0.54153941     0.19000
C848        C  0.36973395  0.80364317  0.53777297    -0.17500
C849        C  0.37648896  0.79697462  0.51433920    -0.19800
C850        C  0.36733989  0.80948724  0.49428902     0.20500
C851        C  0.37274134  0.80193801  0.47069757    -0.32800
C852        C  0.36282548  0.81401998  0.45066387     0.01200
C853        C  0.34842118  0.83460734  0.45441740    -0.24100
C854        C  0.32016489  0.86046768  0.54841811    -0.28700
C855        C  0.32857553  0.84726834  0.56838342     0.06900
C856        C  0.34568810  0.82881492  0.56488020    -0.27400
H857        H  0.30723797  0.88291014  0.50748032     0.11600
H858        H  0.31979363  0.87182122  0.46651144     0.12700
H859        H  0.37674673  0.79346309  0.55293256     0.11800
H860        H  0.38854388  0.78175332  0.51188106     0.11000
H861        H  0.38407495  0.78620656  0.46795122     0.16400
H862        H  0.34076012  0.84405956  0.43908744     0.12300
H863        H  0.30709106  0.87480903  0.55106093     0.15200
H864        H  0.35211461  0.81848496  0.58021422     0.15000
C865        C  0.23705278  0.09382696  0.71337034    -0.17900
C866        C  0.21393264  0.09341109  0.72352880    -0.20100
C867        C  0.21065349  0.09798857  0.74824735     0.20600
C868        C  0.23088814  0.10280134  0.76294337    -0.03000
C869        C  0.25425596  0.10287486  0.75276018    -0.06100
C870        C  0.25730553  0.09859622  0.72780299     0.20900
C871        C  0.27452401  0.10742489  0.76750710     0.19000
C872        C  0.27122836  0.11211706  0.79220413    -0.17500
C873        C  0.24804029  0.11237493  0.80222581    -0.19800
C874        C  0.22777334  0.10773918  0.78776280     0.20500
C875        C  0.20444888  0.10815612  0.79763543    -0.32800
C876        C  0.18419183  0.10342257  0.78308818     0.01200
C877        C  0.18747901  0.09811688  0.75845483    -0.24100
C878        C  0.28052459  0.09933452  0.71769978    -0.28700
C879        C  0.30077683  0.10367214  0.73232505     0.06900
C880        C  0.29768913  0.10744830  0.75724318    -0.27400
H881        H  0.23909191  0.09043812  0.69420186     0.11600
H882        H  0.19858168  0.08970634  0.71199877     0.12700
H883        H  0.28658540  0.11574496  0.80374994     0.11800
H884        H  0.24595852  0.11620728  0.82130675     0.11000
H885        H  0.20206840  0.11220567  0.81664759     0.16400
H886        H  0.17195144  0.09459782  0.74708583     0.12300
H887        H  0.28289105  0.09636437  0.69848421     0.15200
H888        H  0.31327375  0.11108296  0.76850468     0.15000
C889        C  0.32029713  0.98737173  0.61970280    -0.17900
C890        C  0.32667823  0.01094708  0.62631238    -0.20100
C891        C  0.34141518  0.01512887  0.64651567     0.20600
C892        C  0.35049341  0.99526888  0.65966086    -0.03000
C893        C  0.34426984  0.97146217  0.65283262    -0.06100
C894        C  0.32865563  0.96752419  0.63308761     0.20900
C895        C  0.35303167  0.95166433  0.66627632     0.19000
C896        C  0.36827529  0.95577988  0.68607807    -0.17500
C897        C  0.37421868  0.97933195  0.69298505    -0.19800
C898        C  0.36517812  0.99918833  0.68009605     0.20500
C899        C  0.37002663  0.02286396  0.68772215    -0.32800
C900        C  0.36049019  0.04281765  0.67518961     0.01200
C901        C  0.34662861  0.03877456  0.65424495    -0.24100
C902        C  0.32103582  0.94391563  0.62763284    -0.28700
C903        C  0.32910692  0.92417906  0.64147950     0.06900
C904        C  0.34569450  0.92816763  0.66027773    -0.27400
H905        H  0.30845626  0.98469179  0.60437368     0.11600
H906        H  0.31963986  0.02595144  0.61591872     0.12700
H907        H  0.37518258  0.94078306  0.69657176     0.11800
H908        H  0.38560079  0.98202576  0.70865682     0.11000
H909        H  0.38083242  0.02573061  0.70377979     0.16400
H910        H  0.33916526  0.05399170  0.64445866     0.12300
H911        H  0.30841671  0.94095062  0.61297822     0.15200
H912        H  0.35194962  0.91308097  0.67107033     0.15000
C913        C  0.70484809  0.26106185  0.38295880    -0.17900
C914        C  0.69490179  0.23784374  0.38196140    -0.20100
C915        C  0.70986411  0.21737985  0.38260494     0.20600
C916        C  0.73512290  0.22036994  0.38412013    -0.03000
C917        C  0.74517452  0.24379916  0.38482289    -0.06100
C918        C  0.72994641  0.26424179  0.38442364     0.20900
C919        C  0.77045660  0.24674330  0.38588299     0.19000
C920        C  0.78543158  0.22630255  0.38643377    -0.17500
C921        C  0.77546662  0.20311297  0.38607170    -0.19800
C922        C  0.75036532  0.19996019  0.38493856     0.20500
C923        C  0.74027316  0.17675275  0.38458745    -0.32800
C924        C  0.71514218  0.17358332  0.38297617     0.01200
C925        C  0.70004364  0.19400028  0.38181436    -0.24100
C926        C  0.74009857  0.28747193  0.38533134    -0.28700
C927        C  0.76530374  0.29052915  0.38609576     0.06900
C928        C  0.78034007  0.27005615  0.38628660    -0.27400
H929        H  0.69289517  0.27655023  0.38252212     0.11600
H930        H  0.67548128  0.23589380  0.38078928     0.12700
H931        H  0.80487224  0.22824981  0.38723293     0.11800
H932        H  0.78741528  0.18762341  0.38662518     0.11000
H933        H  0.75203981  0.16111378  0.38525393     0.16400
H934        H  0.68065358  0.19169234  0.38060732     0.12300
H935        H  0.72841487  0.30317812  0.38487753     0.15200
H936        H  0.79977237  0.27227743  0.38686933     0.15000
C937        C  0.70304388  0.09760906  0.22617939    -0.17900
C938        C  0.69342993  0.09832363  0.24953028    -0.20100
C939        C  0.70874866  0.09826079  0.26970752     0.20600
C940        C  0.73397636  0.09714095  0.26637688    -0.03000
C941        C  0.74366422  0.09668428  0.24286342    -0.06100
C942        C  0.72812113  0.09700149  0.22266214     0.20900
C943        C  0.76891862  0.09635281  0.23959064     0.19000
C944        C  0.78423337  0.09584496  0.25973280    -0.17500
C945        C  0.77462037  0.09602785  0.28304387    -0.19800
C946        C  0.74956488  0.09687317  0.28653421     0.20500
C947        C  0.73985852  0.09782780  0.30983749    -0.32800
C948        C  0.71480889  0.09950802  0.31326147     0.01200
C949        C  0.69932885  0.09960017  0.29315167    -0.24100
C950        C  0.73797465  0.09724880  0.19934053    -0.28700
C951        C  0.76311806  0.09775953  0.19609162     0.06900
C952        C  0.77845533  0.09701493  0.21624047    -0.27400
H953        H  0.69087701  0.09785624  0.21086910     0.11600
H954        H  0.67401835  0.09909107  0.25180862     0.12700
H955        H  0.80365777  0.09551053  0.25745531     0.11800
H956        H  0.78679371  0.09580241  0.29834937     0.11000
H957        H  0.75184729  0.09786039  0.32530665     0.16400
H958        H  0.67996212  0.10073030  0.29575210     0.12300
H959        H  0.72612377  0.09789140  0.18377876     0.15200
H960        H  0.79787015  0.09715507  0.21373757     0.15000
C961        C  0.61664103  0.00611457  0.33745380    -0.17900
C962        C  0.61009899  0.98247231  0.33166801    -0.20100
C963        C  0.62206105  0.96290538  0.34239109     0.20600
C964        C  0.64033714  0.96711592  0.35961375    -0.03000
C965        C  0.64708283  0.99099384  0.36529616    -0.06100
C966        C  0.63529170  0.01054296  0.35397219     0.20900
C967        C  0.66607172  0.99528563  0.38171792     0.19000
C968        C  0.67754826  0.97567029  0.39295877    -0.17500
C969        C  0.67070496  0.95196697  0.38747240    -0.19800
C970        C  0.65239900  0.94749242  0.37054111     0.20500
C971        C  0.64656534  0.92381794  0.36361434    -0.32800
C972        C  0.62925522  0.91966047  0.34551747     0.01200
C973        C  0.61665466  0.93923958  0.33548404    -0.24100
C974        C  0.64276798  0.03417071  0.35883865    -0.28700
C975        C  0.66220107  0.03858089  0.37449985     0.06900
C976        C  0.67361289  0.01907489  0.38612105    -0.27400
H977        H  0.60740699  0.02095210  0.32865018     0.11600
H978        H  0.59597603  0.97948951  0.31848159     0.12700
H979        H  0.69206133  0.97865094  0.40571250     0.11800
H980        H  0.68010305  0.93711919  0.39608161     0.11000
H981        H  0.65632371  0.90874152  0.37141288     0.16400
H982        H  0.60308878  0.93609454  0.32173884     0.12300
H983        H  0.63398764  0.04911066  0.34972290     0.15200
H984        H  0.68855088  0.02238663  0.39830701     0.15000
C985        C  0.71369895  0.26640791  0.63415035    -0.17900
C986        C  0.73648518  0.27718135  0.63432285    -0.20100
C987        C  0.75734729  0.26305687  0.63176752     0.20600
C988        C  0.75526799  0.23777376  0.62916619    -0.03000
C989        C  0.73226014  0.22684887  0.62933287    -0.06100
C990        C  0.71141466  0.24131233  0.63162020     0.20900
C991        C  0.73010843  0.20151978  0.62720049     0.19000
C992        C  0.75102822  0.18740067  0.62470193    -0.17500
C993        C  0.77384335  0.19827264  0.62420976    -0.19800
C994        C  0.77614574  0.22343161  0.62642882     0.20500
C995        C  0.79892645  0.23451057  0.62611782    -0.32800
C996        C  0.80110192  0.25968594  0.62898374     0.01200
C997        C  0.78023198  0.27380020  0.63184904    -0.24100
C998        C  0.68861181  0.23047776  0.63132707    -0.28700
C999        C  0.68625803  0.20530668  0.62931327     0.06900
C1000       C  0.70707861  0.19084965  0.62752095    -0.27400
H1001       H  0.69783974  0.27771765  0.63602933     0.11600
H1002       H  0.73778497  0.29659736  0.63636045     0.12700
H1003       H  0.74974048  0.16795164  0.62301739     0.11800
H1004       H  0.78970127  0.18698837  0.62217139     0.11000
H1005       H  0.81498690  0.22348605  0.62413890     0.16400
H1006       H  0.78179663  0.29319357  0.63403271     0.12300
H1007       H  0.67261836  0.24165284  0.63304036     0.15200
H1008       H  0.70531633  0.17141673  0.62595485     0.15000
C1009       C  0.49727618  0.10130517  0.68649448    -0.17900
C1010       C  0.52060688  0.10744328  0.67905668    -0.20100
C1011       C  0.52430236  0.12643124  0.66269677     0.20600
C1012       C  0.50428925  0.13929255  0.65360672    -0.03000
C1013       C  0.48069497  0.13291878  0.66092141    -0.06100
C1014       C  0.47721361  0.11394304  0.67758460     0.20900
C1015       C  0.46064466  0.14570931  0.65179771     0.19000
C1016       C  0.46437508  0.16485371  0.63560131    -0.17500
C1017       C  0.48777418  0.17135564  0.62858200    -0.19800
C1018       C  0.50785919  0.15870286  0.63747479     0.20500
C1019       C  0.53144391  0.16532968  0.63083944    -0.32800
C1020       C  0.55150473  0.15263458  0.63994627     0.01200
C1021       C  0.54769718  0.13302666  0.65563999    -0.24100
C1022       C  0.45378097  0.10813788  0.68529313    -0.28700
C1023       C  0.43369934  0.12079738  0.67630417     0.06900
C1024       C  0.43727056  0.13937779  0.65932529    -0.27400
H1025       H  0.49493026  0.08669906  0.69929273     0.11600
H1026       H  0.53579747  0.09745113  0.68626941     0.12700
H1027       H  0.44919133  0.17493726  0.62850302     0.11800
H1028       H  0.49016191  0.18633034  0.61622549     0.11000
H1029       H  0.53418919  0.18056019  0.61886052     0.16400
H1030       H  0.56301143  0.12332846  0.66301762     0.12300
H1031       H  0.45116905  0.09381502  0.69837608     0.15200
H1032       H  0.42190359  0.14941280  0.65252670     0.15000
C1033       C  0.67051092  0.09500923  0.51034395    -0.17900
C1034       C  0.66386431  0.10189524  0.53375132    -0.20100
C1035       C  0.64908162  0.12216285  0.53750109     0.20600
C1036       C  0.64047527  0.13530870  0.51744812    -0.03000
C1037       C  0.64690004  0.12817914  0.49385621    -0.06100
C1038       C  0.66233141  0.10817597  0.49030088     0.20900
C1039       C  0.63832652  0.14143363  0.47386485     0.19000
C1040       C  0.62341417  0.16156971  0.47755039    -0.17500
C1041       C  0.61732403  0.16882286  0.50092843    -0.19800
C1042       C  0.62585144  0.15589434  0.52096015     0.20500
C1043       C  0.62033172  0.16346924  0.54444054    -0.32800
C1044       C  0.62905415  0.15067061  0.56453911     0.01200
C1045       C  0.64315245  0.12982310  0.56093243    -0.24100
C1046       C  0.66976705  0.10213233  0.46682141    -0.28700
C1047       C  0.66153268  0.11558340  0.44695010     0.06900
C1048       C  0.64537292  0.13478068  0.45055275    -0.27400
H1049       H  0.68225898  0.07954269  0.50793412     0.11600
H1050       H  0.67059207  0.09158174  0.54894981     0.12700
H1051       H  0.61676794  0.17194517  0.46235409     0.11800
H1052       H  0.60607241  0.18465324  0.50335011     0.11000
H1053       H  0.60944803  0.17953878  0.54705842     0.16400
H1054       H  0.65007751  0.11995142  0.57634607     0.12300
H1055       H  0.68213895  0.08721208  0.46401118     0.15200
H1056       H  0.63915039  0.14528807  0.43524628     0.15000
C1057       C  0.37831949  0.69529661  0.28869620    -0.17900
C1058       C  0.37820031  0.68490975  0.26561169    -0.20100
C1059       C  0.37525048  0.69937566  0.24499741     0.20600
C1060       C  0.37240269  0.72457622  0.24772400    -0.03000
C1061       C  0.37218089  0.73500633  0.27101937    -0.06100
C1062       C  0.37528469  0.72031746  0.29160051     0.20900
C1063       C  0.36881399  0.76013784  0.27368128     0.19000
C1064       C  0.36588516  0.77461717  0.25311203    -0.17500
C1065       C  0.36643950  0.76434944  0.23005414    -0.19800
C1066       C  0.36969885  0.73939017  0.22717659     0.20500
C1067       C  0.37012475  0.72901025  0.20409658    -0.32800
C1068       C  0.37255449  0.70391767  0.20119345     0.01200
C1069       C  0.37500039  0.68914947  0.22172702    -0.24100
C1070       C  0.37523767  0.73091700  0.31468065    -0.28700
C1071       C  0.37177650  0.75598020  0.31745444     0.06900
C1072       C  0.36845187  0.77039771  0.29683515    -0.27400
H1073       H  0.38069178  0.68373574  0.30429465     0.11600
H1074       H  0.38046257  0.66555049  0.26388207     0.12700
H1075       H  0.36326200  0.79393127  0.25485112     0.11800
H1076       H  0.36422637  0.77593870  0.21445134     0.11000
H1077       H  0.36796218  0.74043362  0.18834472     0.16400
H1078       H  0.37693789  0.66978755  0.21955867     0.12300
H1079       H  0.37760833  0.71962031  0.33048346     0.15200
H1080       H  0.36577333  0.78969577  0.29878196     0.15000
C1081       C  0.21430450  0.69703370  0.12546195    -0.17900
C1082       C  0.23732491  0.68662966  0.12642159    -0.20100
C1083       C  0.25798974  0.70123489  0.12755226     0.20600
C1084       C  0.25541924  0.72660076  0.12760717    -0.03000
C1085       C  0.23216605  0.73710061  0.12695863    -0.06100
C1086       C  0.21151937  0.72223370  0.12582848     0.20900
C1087       C  0.22959196  0.76245281  0.12765383     0.19000
C1088       C  0.25025863  0.77706533  0.12855139    -0.17500
C1089       C  0.27329010  0.76668055  0.12885850    -0.19800
C1090       C  0.27606184  0.74148867  0.12847971     0.20500
C1091       C  0.29909798  0.73094252  0.12912491    -0.32800
C1092       C  0.30180907  0.70568408  0.12943670     0.01200
C1093       C  0.28115178  0.69094354  0.12871694    -0.24100
C1094       C  0.18846269  0.73281027  0.12539855    -0.28700
C1095       C  0.18573143  0.75805660  0.12662470     0.06900
C1096       C  0.20641586  0.77274015  0.12767714    -0.27400
H1097       H  0.19865263  0.68534964  0.12462934     0.11600
H1098       H  0.23896216  0.66713201  0.12629649     0.12700
H1099       H  0.24861100  0.79655673  0.12905151     0.11800
H1100       H  0.28894784  0.77836678  0.12956306     0.11000
H1101       H  0.31493019  0.74241253  0.12984964     0.16400
H1102       H  0.28312233  0.67146500  0.12882737     0.12300
H1103       H  0.17261833  0.72135720  0.12474749     0.15200
H1104       H  0.20447112  0.79220454  0.12851697     0.15000
C1105       C  0.78269436  0.23527415  0.12342144    -0.17900
C1106       C  0.77266152  0.25843321  0.12374070    -0.20100
C1107       C  0.74759009  0.26153053  0.12551061     0.20600
C1108       C  0.73241964  0.24110541  0.12674418    -0.03000
C1109       C  0.74252217  0.21772489  0.12607808    -0.06100
C1110       C  0.76780048  0.21484209  0.12466337     0.20900
C1111       C  0.72736612  0.19726773  0.12706265     0.19000
C1112       C  0.70228145  0.20038376  0.12884137    -0.17500
C1113       C  0.69228551  0.22357691  0.12983111    -0.19800
C1114       C  0.70719479  0.24403462  0.12883145     0.20500
C1115       C  0.69736176  0.26736018  0.12998257    -0.32800
C1116       C  0.71239935  0.28777481  0.12866328     0.01200
C1117       C  0.73746313  0.28470245  0.12625228    -0.24100
C1118       C  0.77776984  0.19159261  0.12478247    -0.28700
C1119       C  0.76280334  0.17116471  0.12582386     0.06900
C1120       C  0.73760494  0.17408880  0.12659721    -0.27400
H1121       H  0.80212403  0.23334294  0.12226162     0.11600
H1122       H  0.78453741  0.27393933  0.12279323     0.12700
H1123       H  0.69040104  0.18487500  0.12967285     0.11800
H1124       H  0.67288424  0.22551392  0.13139240     0.11000
H1125       H  0.67800086  0.26962845  0.13173921     0.16400
H1126       H  0.74915365  0.30036927  0.12538781     0.12300
H1127       H  0.79720317  0.18936626  0.12401945     0.15200
H1128       H  0.72602909  0.15834241  0.12757044     0.15000
C1129       C  0.78444888  0.35722882  0.25108771    -0.17900
C1130       C  0.77397602  0.35718590  0.22810522    -0.20100
C1131       C  0.74882506  0.35874124  0.22547328     0.20600
C1132       C  0.73405903  0.36044630  0.24617106    -0.03000
C1133       C  0.74465072  0.36083865  0.26934328    -0.06100
C1134       C  0.76995822  0.35905391  0.27181136     0.20900
C1135       C  0.72989986  0.36288178  0.29002290     0.19000
C1136       C  0.70474626  0.36430989  0.28739305    -0.17500
C1137       C  0.69423179  0.36359055  0.26444885    -0.19800
C1138       C  0.70870723  0.36164107  0.24373672     0.20500
C1139       C  0.69828788  0.36078868  0.22065515    -0.32800
C1140       C  0.71292394  0.35929811  0.19997778     0.01200
C1141       C  0.73817334  0.35846319  0.20252186    -0.24100
C1142       C  0.78029613  0.35900366  0.29494910    -0.28700
C1143       C  0.76568366  0.36113693  0.31562395     0.06900
C1144       C  0.74052549  0.36325782  0.31298286    -0.27400
H1145       H  0.80389518  0.35586297  0.25265161     0.11600
H1146       H  0.78554969  0.35580120  0.21237993     0.12700
H1147       H  0.69317929  0.36583890  0.30310906     0.11800
H1148       H  0.67476175  0.36457870  0.26290414     0.11000
H1149       H  0.67882605  0.36153307  0.21875183     0.16400
H1150       H  0.74952967  0.35709150  0.18662062     0.12300
H1151       H  0.79970467  0.35740537  0.29686685     0.15200
H1152       H  0.72913622  0.36468521  0.32885244     0.15000
C1153       C  0.73795427  0.59615575  0.30301669    -0.17900
C1154       C  0.71501755  0.59495115  0.29252167    -0.20100
C1155       C  0.71199124  0.59921297  0.26771949     0.20600
C1156       C  0.73229634  0.60474469  0.25334046    -0.03000
C1157       C  0.75548502  0.60564937  0.26386767    -0.06100
C1158       C  0.75829560  0.60141740  0.28885160     0.20900
C1159       C  0.77584450  0.61069139  0.24937674     0.19000
C1160       C  0.77278608  0.61535326  0.22465910    -0.17500
C1161       C  0.74977206  0.61479215  0.21430141    -0.19800
C1162       C  0.72945249  0.60936719  0.22844678     0.20500
C1163       C  0.70634327  0.60859514  0.21814856    -0.32800
C1164       C  0.68599109  0.60305506  0.23233230     0.01200
C1165       C  0.68901054  0.59822378  0.25709326    -0.24100
C1166       C  0.78140977  0.60232518  0.29916980    -0.28700
C1167       C  0.80178787  0.60666384  0.28469290     0.06900
C1168       C  0.79889718  0.61085471  0.25983710    -0.27400
H1169       H  0.73980213  0.59282431  0.32220815     0.11600
H1170       H  0.69961836  0.59074827  0.30383299     0.12700
H1171       H  0.78820715  0.61940610  0.21332133     0.11800
H1172       H  0.74788150  0.61847137  0.19517779     0.11000
H1173       H  0.70420766  0.61238720  0.19906300     0.16400
H1174       H  0.67342123  0.59414814  0.26820611     0.12300
H1175       H  0.78364064  0.59907423  0.31834977     0.15200
H1176       H  0.81459082  0.61453154  0.24871892     0.15000
C1177       C  0.60818789  0.76039658  0.22566369    -0.17900
C1178       C  0.60868292  0.73755982  0.21484188    -0.20100
C1179       C  0.61180297  0.71674333  0.22895226     0.20600
C1180       C  0.61440717  0.71895565  0.25422433    -0.03000
C1181       C  0.61422841  0.74198605  0.26508737    -0.06100
C1182       C  0.61102049  0.76279859  0.25074281     0.20900
C1183       C  0.61742887  0.74416972  0.29028193     0.19000
C1184       C  0.62048125  0.72338456  0.30441243    -0.17500
C1185       C  0.62033391  0.70054934  0.29369376    -0.19800
C1186       C  0.61732423  0.69816315  0.26865791     0.20500
C1187       C  0.61732411  0.67534088  0.25780445    -0.32800
C1188       C  0.61504457  0.67301699  0.23265708     0.01200
C1189       C  0.61243512  0.69376071  0.21827996    -0.24100
C1190       C  0.61100311  0.78563279  0.26171417    -0.28700
C1191       C  0.61463249  0.78790506  0.28675652     0.06900
C1192       C  0.61774612  0.76709928  0.30090754    -0.27400
H1193       H  0.60575620  0.77619913  0.21439212     0.11600
H1194       H  0.60660906  0.73617738  0.19543466     0.12700
H1195       H  0.62297508  0.72478918  0.32376965     0.11800
H1196       H  0.62268989  0.68474542  0.30498069     0.11000
H1197       H  0.61962874  0.65936395  0.26888566     0.16400
H1198       H  0.61062504  0.69196800  0.19886593     0.12300
H1199       H  0.60877077  0.80165081  0.25068832     0.15200
H1200       H  0.62046788  0.76875291  0.32022738     0.15000
C1201       C  0.49897186  0.66723779  0.12943515    -0.17900
C1202       C  0.52232792  0.66047520  0.13617419    -0.20100
C1203       C  0.52602242  0.64062146  0.15146450     0.20600
C1204       C  0.50606753  0.62702090  0.15953811    -0.03000
C1205       C  0.48249792  0.63367015  0.15247269    -0.06100
C1206       C  0.47894195  0.65414587  0.13772308     0.20900
C1207       C  0.46247903  0.62029701  0.16077779     0.19000
C1208       C  0.46625563  0.60008044  0.17560273    -0.17500
C1209       C  0.48960278  0.59367163  0.18285643    -0.19800
C1210       C  0.50959477  0.60723862  0.17523860     0.20500
C1211       C  0.53295802  0.60179501  0.18349276    -0.32800
C1212       C  0.55282592  0.61557684  0.17579518     0.01200
C1213       C  0.54926529  0.63458160  0.15935908    -0.24100
C1214       C  0.45541469  0.66164289  0.13215710    -0.28700
C1215       C  0.43532325  0.64893172  0.14106989     0.06900
C1216       C  0.43902840  0.62787025  0.15481665    -0.27400
H1217       H  0.49655309  0.68294389  0.11802545     0.11600
H1218       H  0.53748041  0.67107488  0.12981233     0.12700
H1219       H  0.45109705  0.58954220  0.18204586     0.11800
H1220       H  0.49198541  0.57831150  0.19473418     0.11000
H1221       H  0.53567545  0.58701252  0.19603334     0.16400
H1222       H  0.56451602  0.64534886  0.15348615     0.12300
H1223       H  0.45275131  0.67777375  0.12139452     0.15200
H1224       H  0.42366255  0.61793698  0.16174266     0.15000
C1225       C  0.61258303  0.45333912  0.18018778    -0.17900
C1226       C  0.60662724  0.47686744  0.18728541    -0.20100
C1227       C  0.61896850  0.49672197  0.17750648     0.20600
C1228       C  0.63705132  0.49285407  0.15994363    -0.03000
C1229       C  0.64325061  0.46911849  0.15300230    -0.06100
C1230       C  0.63109566  0.44926239  0.16333356     0.20900
C1231       C  0.66208985  0.46526179  0.13625515     0.19000
C1232       C  0.67396625  0.48512036  0.12597392    -0.17500
C1233       C  0.66762544  0.50863125  0.13262476    -0.19800
C1234       C  0.64944692  0.51266371  0.14980765     0.20500
C1235       C  0.64399009  0.53612045  0.15755006    -0.32800
C1236       C  0.62676233  0.54005662  0.17576515     0.01200
C1237       C  0.61404224  0.52030801  0.18543019    -0.24100
C1238       C  0.63819060  0.42570410  0.15719640    -0.28700
C1239       C  0.65763702  0.42175355  0.14128768     0.06900
C1240       C  0.66920960  0.44163429  0.13059173    -0.27400
H1241       H  0.60302857  0.43829676  0.18825208     0.11600
H1242       H  0.59260486  0.47951472  0.20067939     0.12700
H1243       H  0.68839760  0.48245999  0.11302558     0.11800
H1244       H  0.67728361  0.52366526  0.12466857     0.11000
H1245       H  0.65391067  0.55125667  0.15009657     0.16400
H1246       H  0.60060005  0.52326609  0.19936241     0.12300
H1247       H  0.62923178  0.41046463  0.16559296     0.15200
H1248       H  0.68410836  0.43872822  0.11821966     0.15000
C1249       C  0.27289049  0.35480678  0.72678905    -0.17900
C1250       C  0.25021826  0.35410360  0.71573280    -0.20100
C1251       C  0.22912931  0.35678647  0.72952458     0.20600
C1252       C  0.23088864  0.35986190  0.75478068    -0.03000
C1253       C  0.25377563  0.36025519  0.76599067    -0.06100
C1254       C  0.27485427  0.35800203  0.75185253     0.20900
C1255       C  0.25556263  0.36296714  0.79129470     0.19000
C1256       C  0.23444474  0.36536478  0.80511594    -0.17500
C1257       C  0.21177274  0.36531259  0.79396342    -0.19800
C1258       C  0.20980909  0.36264507  0.76881767     0.20500
C1259       C  0.18716351  0.36275228  0.75745658    -0.32800
C1260       C  0.18526309  0.35975732  0.73226516     0.01200
C1261       C  0.20634456  0.35656348  0.71847398    -0.24100
C1262       C  0.29753154  0.35893934  0.76300727    -0.28700
C1263       C  0.29947599  0.36150169  0.78819059     0.06900
C1264       C  0.27842101  0.36326141  0.80227997    -0.27400
H1265       H  0.28891164  0.35287708  0.71571583     0.11600
H1266       H  0.24918714  0.35165053  0.69634568     0.12700
H1267       H  0.23546644  0.36744085  0.82454696     0.11800
H1268       H  0.19575608  0.36736821  0.80502010     0.11000
H1269       H  0.17098977  0.36493678  0.76827558     0.16400
H1270       H  0.20504367  0.35417633  0.69908439     0.12300
H1271       H  0.31371684  0.35715145  0.75212266     0.15200
H1272       H  0.27986063  0.36514649  0.82171618     0.15000
C1273       C  0.37487580  0.20360625  0.79483999    -0.17900
C1274       C  0.37432566  0.22645005  0.80567710    -0.20100
C1275       C  0.37201920  0.24734566  0.79152088     0.20600
C1276       C  0.37030801  0.24517514  0.76616519    -0.03000
C1277       C  0.37050586  0.22210119  0.75525752    -0.06100
C1278       C  0.37289750  0.20123189  0.76966841     0.20900
C1279       C  0.36818195  0.21993273  0.72995653     0.19000
C1280       C  0.36603561  0.24082109  0.71578299    -0.17500
C1281       C  0.36619438  0.26367931  0.72654625    -0.19800
C1282       C  0.36827804  0.26604516  0.75169609     0.20500
C1283       C  0.36821060  0.28890652  0.76262021    -0.32800
C1284       C  0.36952719  0.29121620  0.78787795     0.01200
C1285       C  0.37131993  0.27035001  0.80223900    -0.24100
C1286       C  0.37306995  0.17837089  0.75867525    -0.28700
C1287       C  0.37038173  0.17604598  0.73349409     0.06900
C1288       C  0.36792801  0.19693621  0.71927766    -0.27400
H1289       H  0.37669114  0.18776828  0.80617639     0.11600
H1290       H  0.37572649  0.22777284  0.82515060     0.12700
H1291       H  0.36425930  0.23948364  0.69634164     0.11800
H1292       H  0.36454985  0.27952340  0.71519355     0.11000
H1293       H  0.36660199  0.30492596  0.75148523     0.16400
H1294       H  0.37244609  0.27205312  0.82171432     0.12300
H1295       H  0.37480682  0.16235051  0.76978522     0.15200
H1296       H  0.36595030  0.19530041  0.69986725     0.15000
C1297       C  0.27437708  0.76349257  0.88479034    -0.17900
C1298       C  0.28487580  0.74052857  0.88429809    -0.20100
C1299       C  0.27037699  0.71979131  0.88330549     0.20600
C1300       C  0.24501736  0.72220446  0.88274478    -0.03000
C1301       C  0.23441669  0.74542901  0.88287416    -0.06100
C1302       C  0.24920230  0.76613529  0.88405940     0.20900
C1303       C  0.20908008  0.74792399  0.88176441     0.19000
C1304       C  0.19458229  0.72715518  0.88083708    -0.17500
C1305       C  0.20507619  0.70412636  0.88108346    -0.19800
C1306       C  0.23027178  0.70144190  0.88202244     0.20500
C1307       C  0.24100462  0.67841199  0.88217701    -0.32800
C1308       C  0.26630259  0.67590896  0.88245424     0.01200
C1309       C  0.28082624  0.69670805  0.88287587    -0.24100
C1310       C  0.23860351  0.78913461  0.88436092    -0.28700
C1311       C  0.21341305  0.79182611  0.88295198     0.06900
C1312       C  0.19874244  0.77112389  0.88155767    -0.27400
H1313       H  0.28597532  0.77921363  0.88563602     0.11600
H1314       H  0.30436576  0.73898580  0.88477375     0.12700
H1315       H  0.17510568  0.72871687  0.87999788     0.11800
H1316       H  0.19347353  0.68840083  0.88044372     0.11000
H1317       H  0.22970547  0.66244816  0.88165373     0.16400
H1318       H  0.30031136  0.69490928  0.88320824     0.12300
H1319       H  0.25002536  0.80500008  0.88521375     0.15200
H1320       H  0.17929800  0.77307210  0.88053558     0.15000
C1321       C  0.27820292  0.59332045  0.72725122    -0.17900
C1322       C  0.28835521  0.59338309  0.75039934    -0.20100
C1323       C  0.27370861  0.59642547  0.77087795     0.20600
C1324       C  0.24850101  0.59886704  0.76801921    -0.03000
C1325       C  0.23830022  0.59916192  0.74464363    -0.06100
C1326       C  0.25325226  0.59652716  0.72416277     0.20900
C1327       C  0.21321586  0.60258404  0.74177549     0.19000
C1328       C  0.19847797  0.60492286  0.76226877    -0.17500
C1329       C  0.20853310  0.60430512  0.78542509    -0.19800
C1330       C  0.23352770  0.60155128  0.78848232     0.20500
C1331       C  0.24385631  0.60202445  0.81160359    -0.32800
C1332       C  0.26902422  0.60059958  0.81452483     0.01200
C1333       C  0.28383812  0.59757860  0.79410697    -0.24100
C1334       C  0.24306049  0.59762501  0.70097006    -0.28700
C1335       C  0.21816807  0.60179574  0.69796200     0.06900
C1336       C  0.20335255  0.60401121  0.71848587    -0.27400
H1337       H  0.28993333  0.59117336  0.71173025     0.11600
H1338       H  0.30771164  0.59130434  0.75226823     0.12700
H1339       H  0.17917557  0.60745017  0.76038436     0.19000
H1340       H  0.19679017  0.60637549  0.80094748     0.11000
H1341       H  0.23237863  0.60446505  0.82728911     0.16400
H1342       H  0.30323742  0.59625387  0.79631607     0.12300
H1343       H  0.25461548  0.59585812  0.68525830     0.15200
H1344       H  0.18412839  0.60697576  0.71634239     0.15000
C1345       C  0.31824953  0.60904489  0.03453791    -0.17900
C1346       C  0.31092805  0.60335315  0.01106065    -0.20100
C1347       C  0.32154635  0.61485268  0.99113934     0.20600
C1348       C  0.34003402  0.63196231  0.99487058    -0.03000
C1349       C  0.34724370  0.63791517  0.01861897    -0.06100
C1350       C  0.33618042  0.62646725  0.03851525     0.20900
C1351       C  0.36507035  0.65570129  0.02246008     0.19000
C1352       C  0.37607847  0.66678541  0.00248136    -0.17500
C1353       C  0.36914014  0.66066554  0.97893081    -0.19800
C1354       C  0.35094122  0.64348777  0.97492320     0.20500
C1355       C  0.34309748  0.63798768  0.95139784    -0.32800
C1356       C  0.32415939  0.62146334  0.94761141     0.01200
C1357       C  0.31366757  0.60983286  0.96760486    -0.24100
C1358       C  0.34271122  0.63310388  0.06205773    -0.28700
C1359       C  0.35972369  0.65149442  0.06609799     0.06900
C1360       C  0.37109541  0.66249594  0.04618370    -0.27400
H1361       H  0.30958493  0.60009080  0.04962473     0.11600
H1362       H  0.29677654  0.59011094  0.00849471     0.12700
H1363       H  0.38987392  0.68039259  0.00507137     0.11800
H1364       H  0.37775576  0.66966324  0.96384315     0.11000
H1365       H  0.35124564  0.64708764  0.93610104     0.16400
H1366       H  0.29919777  0.59695662  0.96486567     0.12300
H1367       H  0.33376816  0.62461565  0.07726619     0.15200
H1368       H  0.38431238  0.67660916  0.04914161     0.15000
C1369       C  0.31385521  0.48053234  0.89609537    -0.17900
C1370       C  0.32049230  0.45686692  0.89017626    -0.20100
C1371       C  0.33795946  0.45246527  0.87232859     0.20600
C1372       C  0.34959318  0.47213779  0.86106211    -0.03000
C1373       C  0.34308423  0.49605302  0.86724673    -0.06100
C1374       C  0.32469736  0.50022469  0.88440807     0.20900
C1375       C  0.35428568  0.51573218  0.85556446     0.19000
C1376       C  0.37242067  0.51133205  0.83838142    -0.17500
C1377       C  0.37867557  0.48764767  0.83206661    -0.19800
C1378       C  0.36702731  0.46793753  0.84294014     0.20500
C1379       C  0.37182015  0.44417787  0.83538082    -0.32800
C1380       C  0.35956146  0.42451669  0.84584347     0.01200
C1381       C  0.34325700  0.42879089  0.86487633    -0.24100
C1382       C  0.31683240  0.52392329  0.88890412    -0.28700
C1383       C  0.32720337  0.54358386  0.87660228     0.06900
C1384       C  0.34648007  0.53938034  0.86053811    -0.27400
H1385       H  0.29984734  0.48341669  0.90945889     0.11600
H1386       H  0.31147337  0.44198507  0.89910028     0.12700
H1387       H  0.38131492  0.52621472  0.82933435     0.11800
H1388       H  0.39226148  0.48475588  0.81827499     0.11000
H1389       H  0.38464160  0.44103372  0.82091273     0.16400
H1390       H  0.33377452  0.41377161  0.87308361     0.12300
H1391       H  0.30215756  0.52700390  0.90150177     0.15200
H1392       H  0.35461106  0.55440154  0.85099230     0.15000
C1393       C  0.73633919  0.18593959  0.87758436    -0.17900
C1394       C  0.71318565  0.19587199  0.87741397    -0.20100
C1395       C  0.70979394  0.22047038  0.88233976     0.20600
C1396       C  0.72984255  0.23517379  0.88793310    -0.03000
C1397       C  0.75318210  0.22508139  0.88837492    -0.06100
C1398       C  0.75640173  0.20043062  0.88283959     0.20900
C1399       C  0.77330330  0.23972338  0.89385961     0.19000
C1400       C  0.76980383  0.26423976  0.89929891    -0.17500
C1401       C  0.74664509  0.27432999  0.89860460    -0.19800
C1402       C  0.72661604  0.26001925  0.89263619     0.20500
C1403       C  0.70345573  0.27010479  0.89097445    -0.32800
C1404       C  0.68353935  0.25549254  0.88528706     0.01200
C1405       C  0.68673187  0.23068301  0.88139887    -0.24100
C1406       C  0.77966314  0.19074633  0.88215840    -0.28700
C1407       C  0.79986286  0.20529139  0.88694278     0.06900
C1408       C  0.79656520  0.22967854  0.89326159    -0.27400
H1409       H  0.73858146  0.16695773  0.87337591     0.11600
H1410       H  0.69796181  0.18438457  0.87310864     0.12700
H1411       H  0.78502288  0.27570076  0.90368705     0.11800
H1412       H  0.74442993  0.29338233  0.90248930     0.11000
H1413       H  0.70085224  0.28923209  0.89428790     0.16400
H1414       H  0.67131268  0.21946998  0.87697972     0.12300
H1415       H  0.78203354  0.17186232  0.87754723     0.15200
H1416       H  0.81208125  0.24095388  0.89710082     0.15000
C1417       C  0.61380699  0.26612875  0.72680742    -0.17900
C1418       C  0.61353733  0.27620012  0.74994821    -0.20100
C1419       C  0.61093639  0.26139763  0.77033457     0.20600
C1420       C  0.60804157  0.23624838  0.76738676    -0.03000
C1421       C  0.60862808  0.22604795  0.74405546    -0.06100
C1422       C  0.61166275  0.24108532  0.72371137     0.20900
C1423       C  0.60671465  0.20079114  0.74113309     0.19000
C1424       C  0.60331868  0.18607651  0.76147609    -0.17500
C1425       C  0.60243463  0.19623126  0.78460287    -0.19800
C1426       C  0.60514182  0.22123573  0.78776640     0.20500
C1427       C  0.60564648  0.23142275  0.81095765    -0.32800
C1428       C  0.60952383  0.25634372  0.81403221     0.01200
C1429       C  0.61175715  0.27125067  0.79362326    -0.24100
C1430       C  0.61296848  0.23078804  0.70066244    -0.28700
C1431       C  0.61189921  0.20562631  0.69771808     0.06900
C1432       C  0.60861994  0.19070566  0.71796748    -0.27400
H1433       H  0.61609235  0.27789636  0.71134556     0.11600
H1434       H  0.61564951  0.29554913  0.75191773     0.12700
H1435       H  0.60161786  0.16668471  0.75952540     0.11800
H1436       H  0.60008604  0.18447073  0.80005810     0.11000
H1437       H  0.60384673  0.21982960  0.82662517     0.16400
H1438       H  0.61445674  0.29050836  0.79586703     0.12300
H1439       H  0.61554443  0.24231782  0.68504727     0.15200
H1440       H  0.60750327  0.17129532  0.71566499     0.15000
C1441       C  0.67833409  0.35749031  0.00244644    -0.17900
C1442       C  0.67212124  0.35067603  0.97891956    -0.20100
C1443       C  0.65318287  0.33435426  0.97486889     0.20600
C1444       C  0.64036967  0.32480334  0.99473232    -0.03000
C1445       C  0.64646936  0.33187048  0.01845146    -0.06100
C1446       C  0.66561255  0.34820175  0.02231334     0.20900
C1447       C  0.63359279  0.32236366  0.03829417     0.19000
C1448       C  0.61485948  0.30581813  0.03426131    -0.17500
C1449       C  0.60897178  0.29863188  0.01078511    -0.19800
C1450       C  0.62161295  0.30800277  0.99093190     0.20500
C1451       C  0.61595456  0.30068246  0.96737698    -0.32800
C1452       C  0.62852555  0.31021044  0.94750569     0.01200
C1453       C  0.64700115  0.32718519  0.95135745    -0.24100
C1454       C  0.67195930  0.35463678  0.04597913    -0.28700
C1455       C  0.65934339  0.34506435  0.06587131     0.06900
C1456       C  0.63996533  0.32919405  0.06183846    -0.27400
H1457       H  0.69312654  0.36998982  0.00510774     0.11600
H1458       H  0.68222804  0.35807852  0.96388575     0.12700
H1459       H  0.60486428  0.29827741  0.04929887     0.11800
H1460       H  0.59454280  0.28570719  0.00815804     0.11000
H1461       H  0.60175191  0.28754231  0.96449411     0.16400
H1462       H  0.65700402  0.33430461  0.93610204     0.12300
H1463       H  0.68697621  0.36681922  0.04891924     0.15200
H1464       H  0.63033510  0.32151767  0.07705813     0.15000
C1465       C  0.49581546  0.36744051  0.83353191    -0.17900
C1466       C  0.51929585  0.36051319  0.83973739    -0.20100
C1467       C  0.52324103  0.34033110  0.85454449     0.20600
C1468       C  0.50332137  0.32726414  0.86356627    -0.03000
C1469       C  0.47963629  0.33440565  0.85752313    -0.06100
C1470       C  0.47588927  0.35439761  0.84216384     0.20900
C1471       C  0.45974327  0.32121789  0.86642922     0.19000
C1472       C  0.46367138  0.30108879  0.88129331    -0.17500
C1473       C  0.48714314  0.29386711  0.88707227    -0.19800
C1474       C  0.50705633  0.30675744  0.87821574     0.20500
C1475       C  0.53062704  0.29917946  0.88333666    -0.32800
C1476       C  0.55057552  0.31184020  0.87407111     0.01200
C1477       C  0.54674037  0.33264544  0.86001330    -0.24100
C1478       C  0.45232475  0.36063112  0.83528237    -0.28700
C1479       C  0.43247733  0.34737231  0.84389138     0.06900
C1480       C  0.43629505  0.32800456  0.85982539    -0.27400
H1481       H  0.49324931  0.38287260  0.82178796     0.11600
H1482       H  0.53439020  0.37074175  0.83266713     0.12700
H1483       H  0.44858592  0.29073399  0.88819769     0.11800
H1484       H  0.48972582  0.27807492  0.89832598     0.11000
H1485       H  0.53342191  0.28312926  0.89418638     0.16400
H1486       H  0.56202026  0.34242177  0.85267813     0.12300
H1487       H  0.44942532  0.37560208  0.82300892     0.15200
H1488       H  0.42105305  0.31756187  0.86627995     0.15000
loop_ 
_geom_bond_atom_site_label_1 
_geom_bond_atom_site_label_2 
_geom_bond_distance 
_geom_bond_site_symmetry_2 
_ccdc_geom_bond_type 
O1            V9   1.897       .  S
O1           C11   1.264       .  A
O2            V9   1.897       .  S
O2           C12   1.264       .  A
O3            V9   1.894       .  S
O3           C13   1.263       .  A
O4            V9   1.895       .  S
O4           C14   1.264       .  A
O5           V10   1.899       .  S
O5           C14   1.265       .  A
O6           V10   1.896       .  S
O6           C13   1.263       .  A
O7           V10   1.900       .  S
O7           C12   1.266       .  A
O8           V10   1.900       .  S
O8           C11   1.265       .  A
V9           V10   2.088       .  T
C11        C1452   1.476       .  S
C12        C1428   1.477       .  S
C13        C1404   1.467       .  S
C14        C1476   1.477       .  S
O15          V23   1.904       .  S
O15          C25   1.266       .  A
O16          V23   1.905       .  S
O16          C26   1.265       .  A
O17          V23   1.900       .  S
O17          C27   1.264       .  A
O18          V23   1.900       .  S
O18          C28   1.265       .  A
O19          V24   1.906       .  S
O19          C28   1.266       .  A
O20          V24   1.904       .  S
O20          C27   1.266       .  A
O21          V24   1.903       .  S
O21          C26   1.266       .  A
O22          V24   1.904       .  S
O22          C25   1.266       .  A
V23          V24   2.086       .  T
C25        C1383   1.485       .  S
C26        C1308   1.482       .  S
C27        C1332   1.478       .  S
C28        C1356   1.483       .  S
O29          V37   1.899       .  S
O29          C39   1.265       .  A
O30          V37   1.903       .  S
O30          C40   1.265       .  A
O31          V37   1.905       .  S
O31          C41   1.266       .  A
O32          V37   1.906       .  S
O32          C42   1.266       .  A
O33          V38   1.902       .  S
O33          C42   1.265       .  A
O34          V38   1.900       .  S
O34          C41   1.265       .  A
O35          V38   1.898       .  S
O35          C40   1.265       .  A
O36          V38   1.898       .  S
O36          C39   1.264       .  A
V37          V38   2.087       .  T
C39        C1479   1.475       .  S
C40        C1263   1.477       .  S
C41        C1284   1.479       .  S
C42        C1380   1.485       .  S
O43          V51   1.905       .  S
O43          C53   1.266       .  A
O44          V51   1.905       .  S
O44          C54   1.266       .  A
O45          V51   1.896       .  S
O45          C55   1.264       .  A
O46          V51   1.898       .  S
O46          C56   1.264       .  A
O47          V52   1.899       .  S
O47          C56   1.265       .  A
O48          V52   1.899       .  S
O48          C55   1.264       .  A
O49          V52   1.897       .  S
O49          C54   1.264       .  A
O50          V52   1.894       .  S
O50          C53   1.264       .  A
V51          V52   2.087       .  T
C53        C1212   1.477       .  S
C54        C1164   1.482       .  S
C55        C1188   1.472       .  S
C56        C1236   1.477       .  S
O57          V65   1.899       .  S
O57          C67   1.264       .  A
O58          V65   1.897       .  S
O58          C68   1.264       .  A
O59          V65   1.905       .  S
O59          C69   1.266       .  A
O60          V65   1.904       .  S
O60          C70   1.267       .  A
O61          V66   1.894       .  S
O61          C70   1.263       .  A
O62          V66   1.894       .  S
O62          C69   1.263       .  A
O63          V66   1.898       .  S
O63          C68   1.265       .  A
O64          V66   1.901       .  S
O64          C67   1.266       .  A
V65          V66   2.087       .  T
C67        C1239   1.479       .  S
C68        C1116   1.476       .  S
C69        C1140   1.476       .  S
C70        C1455   1.480       .  S
O71          V79   1.901       .  S
O71          C81   1.266       .  A
O72          V79   1.905       .  S
O72          C82   1.265       .  A
O73          V79   1.904       .  S
O73          C83   1.266       .  A
O74          V79   1.902       .  S
O74          C84   1.265       .  A
O75          V80   1.900       .  S
O75          C84   1.265       .  A
O76          V80   1.900       .  S
O76          C83   1.265       .  A
O77          V80   1.899       .  S
O77          C82   1.265       .  A
O78          V80   1.903       .  S
O78          C81   1.265       .  A
V79          V80   2.086       .  T
C81        C1359   1.482       .  S
C82        C1068   1.479       .  S
C83        C1092   1.481       .  S
C84        C1215   1.482       .  S
O85          V93   1.900       .  S
O85          C95   1.266       .  A
O86          V93   1.905       .  S
O86          C96   1.265       .  A
O87          V93   1.900       .  S
O87          C97   1.265       .  A
O88          V93   1.900       .  S
O88          C98   1.265       .  A
O89          V94   1.895       .  S
O89          C98   1.264       .  A
O90          V94   1.892       .  S
O90          C97   1.263       .  A
O91          V94   1.896       .  S
O91          C96   1.264       .  A
O92          V94   1.902       .  S
O92          C95   1.265       .  A
V93          V94   2.087       .  T
C95        C1020   1.483       .  S
C96         C999   1.477       .  S
C97        C1431   1.471       .  S
C98        C1044   1.478       .  S
O99         V107   1.899       .  S
O99         C109   1.264       .  A
O100        V107   1.896       .  S
O100        C110   1.264       .  A
O101        V107   1.899       .  S
O101        C111   1.265       .  A
O102        V107   1.898       .  S
O102        C112   1.264       .  A
O103        V108   1.898       .  S
O103        C112   1.265       .  A
O104        V108   1.903       .  S
O104        C111   1.265       .  A
O105        V108   1.892       .  S
O105        C110   1.263       .  A
O106        V108   1.891       .  S
O106        C109   1.263       .  A
V107        V108   2.088       .  T
C109       C1047   1.470       .  S
C110        C948   1.471       .  S
C111        C924   1.480       .  S
C112        C975   1.476       .  S
O113        V121   1.901       .  S
O113        C123   1.266       .  A
O114        V121   1.900       .  S
O114        C124   1.264       .  A
O115        V121   1.901       .  S
O115        C125   1.265       .  A
O116        V121   1.903       .  S
O116        C126   1.266       .  A
O117        V122   1.901       .  S
O117        C126   1.265       .  A
O118        V122   1.900       .  S
O118        C125   1.264       .  A
O119        V122   1.905       .  S
O119        C124   1.266       .  A
O120        V122   1.908       .  S
O120        C123   1.267       .  A
V121        V122   2.086       .  T
C123        C900   1.487       .  S
C124       C1287   1.482       .  S
C125        C879   1.475       .  S
C126       C1023   1.481       .  S
O127        V135   1.900       .  S
O127        C137   1.264       .  A
O128        V135   1.898       .  S
O128        C138   1.265       .  A
O129        V135   1.900       .  S
O129        C139   1.265       .  A
O130        V135   1.903       .  S
O130        C140   1.266       .  A
O131        V136   1.905       .  S
O131        C140   1.266       .  A
O132        V136   1.905       .  S
O132        C139   1.266       .  A
O133        V136   1.900       .  S
O133        C138   1.265       .  A
O134        V136   1.899       .  S
O134        C137   1.265       .  A
V135        V136   2.086       .  T
C137        C855   1.477       .  S
C138        C804   1.480       .  S
C139        C828   1.479       .  S
C140        C903   1.483       .  S
O141        V149   1.900       .  S
O141        C151   1.264       .  A
O142        V149   1.896       .  S
O142        C152   1.265       .  A
O143        V149   1.902       .  S
O143        C153   1.265       .  A
O144        V149   1.902       .  S
O144        C154   1.265       .  A
O145        V150   1.899       .  S
O145        C154   1.265       .  A
O146        V150   1.901       .  S
O146        C153   1.265       .  A
O147        V150   1.896       .  S
O147        C152   1.264       .  A
O148        V150   1.893       .  S
O148        C151   1.264       .  A
V149        V150   2.087       .  T
C151        C972   1.474       .  S
C152       C1191   1.474       .  S
C153        C756   1.478       .  S
C154        C780   1.478       .  S
O155        V163   1.900       .  S
O155        C165   1.265       .  A
O156        V163   1.899       .  S
O156        C166   1.265       .  A
O157        V163   1.901       .  S
O157        C167   1.264       .  A
O158        V163   1.899       .  S
O158        C168   1.265       .  A
O159        V164   1.901       .  S
O159        C168   1.265       .  A
O160        V164   1.903       .  S
O160        C167   1.266       .  A
O161        V164   1.900       .  S
O161        C166   1.264       .  A
O162        V164   1.899       .  S
O162        C165   1.265       .  A
V163        V164   2.086       .  T
C165        C783   1.480       .  S
C166        C735   1.476       .  S
C167       C1071   1.482       .  S
C168        C852   1.480       .  S
O169        V177   1.895       .  S
O169        C179   1.264       .  A
O170        V177   1.896       .  S
O170        C180   1.264       .  A
O171        V177   1.903       .  S
O171        C181   1.266       .  A
O172        V177   1.904       .  S
O172        C182   1.265       .  A
O173        V178   1.902       .  S
O173        C182   1.266       .  A
O174        V178   1.903       .  S
O174        C181   1.265       .  A
O175        V178   1.891       .  S
O175        C180   1.263       .  A
O176        V178   1.891       .  S
O176        C179   1.263       .  A
V177        V178   2.087       .  T
C179        C687   1.472       .  S
C180        C663   1.471       .  S
C181       C1095   1.483       .  S
C182        C708   1.484       .  S
O183        V191   1.905       .  S
O183        C193   1.266       .  A
O184        V191   1.903       .  S
O184        C194   1.266       .  A
O185        V191   1.898       .  S
O185        C195   1.264       .  A
O186        V191   1.898       .  S
O186        C196   1.264       .  A
O187        V192   1.899       .  S
O187        C196   1.265       .  A
O188        V192   1.899       .  S
O188        C195   1.265       .  A
O189        V192   1.902       .  S
O189        C194   1.265       .  A
O190        V192   1.901       .  S
O190        C193   1.265       .  A
V191        V192   2.087       .  T
C193        C711   1.482       .  S
C194        C759   1.482       .  S
C195        C612   1.476       .  S
C196        C636   1.475       .  S
O197        V205   1.897       .  S
O197        C207   1.264       .  A
O198        V205   1.902       .  S
O198        C208   1.264       .  A
O199        V205   1.902       .  S
O199        C209   1.265       .  A
O200        V205   1.895       .  S
O200        C210   1.264       .  A
O201        V206   1.902       .  S
O201        C210   1.265       .  A
O202        V206   1.901       .  S
O202        C209   1.266       .  A
O203        V206   1.892       .  S
O203        C208   1.263       .  A
O204        V206   1.892       .  S
O204        C207   1.263       .  A
V205        V206   2.087       .  T
C207        C684   1.470       .  S
C208        C807   1.470       .  S
C209       C1311   1.480       .  S
C210        C588   1.477       .  S
O211        V219   1.897       .  S
O211        C221   1.265       .  A
O212        V219   1.900       .  S
O212        C222   1.264       .  A
O213        V219   1.899       .  S
O213        C223   1.265       .  A
O214        V219   1.900       .  S
O214        C224   1.265       .  A
O215        V220   1.897       .  S
O215        C224   1.265       .  A
O216        V220   1.899       .  S
O216        C223   1.265       .  A
O217        V220   1.892       .  S
O217        C222   1.263       .  A
O218        V220   1.895       .  S
O218        C221   1.263       .  A
V219        V220   2.087       .  T
C221        C591   1.474       .  S
C222        C543   1.471       .  S
C223        C876   1.479       .  S
C224        C564   1.478       .  S
O225        V233   1.899       .  S
O225        C235   1.265       .  A
O226        V233   1.897       .  S
O226        C236   1.264       .  A
O227        V233   1.889       .  S
O227        C237   1.263       .  A
O228        V233   1.892       .  S
O228        C238   1.263       .  A
O229        V234   1.898       .  S
O229        C238   1.265       .  A
O230        V234   1.897       .  S
O230        C237   1.264       .  A
O231        V234   1.899       .  S
O231        C236   1.264       .  A
O232        V234   1.899       .  S
O232        C235   1.265       .  A
V233        V234   2.088       .  T
C235        C639   1.480       .  S
C236       C1119   1.474       .  S
C237        C951   1.469       .  S
C238        C516   1.472       .  S
O239        V247   1.895       .  S
O239        C249   1.263       .  A
O240        V247   1.889       .  S
O240        C250   1.263       .  A
O241        V247   1.900       .  S
O241        C251   1.265       .  A
O242        V247   1.897       .  S
O242        C252   1.265       .  A
O243        V248   1.896       .  S
O243        C252   1.264       .  A
O244        V248   1.898       .  S
O244        C251   1.265       .  A
O245        V248   1.900       .  S
O245        C250   1.264       .  A
O246        V248   1.898       .  S
O246        C249   1.265       .  A
V247        V248   2.087       .  T
C249        C567   1.474       .  S
C250       C1407   1.474       .  S
C251        C492   1.478       .  S
C252        C519   1.476       .  S
O253        V261   1.898       .  S
O253        C263   1.265       .  A
O254        V261   1.902       .  S
O254        C264   1.265       .  A
O255        V261   1.900       .  S
O255        C265   1.264       .  A
O256        V261   1.899       .  S
O256        C266   1.265       .  A
O257        V262   1.903       .  S
O257        C266   1.265       .  A
O258        V262   1.903       .  S
O258        C265   1.266       .  A
O259        V262   1.900       .  S
O259        C264   1.265       .  A
O260        V262   1.903       .  S
O260        C263   1.265       .  A
V261        V262   2.086       .  T
C263        C468   1.482       .  S
C264        C831   1.481       .  S
C265       C1335   1.482       .  S
C266        C444   1.481       .  S
O267        V275   1.904       .  S
O267        C277   1.265       .  A
O268        V275   1.897       .  S
O268        C278   1.265       .  A
O269        V275   1.898       .  S
O269        C279   1.264       .  A
O270        V275   1.896       .  S
O270        C280   1.264       .  A
O271        V276   1.907       .  S
O271        C280   1.267       .  A
O272        V276   1.905       .  S
O272        C279   1.266       .  A
O273        V276   1.894       .  S
O273        C278   1.263       .  A
O274        V276   1.896       .  S
O274        C277   1.264       .  A
V275        V276   2.087       .  T
C277        C471   1.476       .  S
C278        C540   1.473       .  S
C279       C1260   1.481       .  S
C280        C420   1.481       .  S
O281        V289   1.901       .  S
O281        C291   1.265       .  A
O282        V289   1.899       .  S
O282        C292   1.264       .  A
O283        V289   1.897       .  S
O283        C293   1.265       .  A
O284        V289   1.900       .  S
O284        C294   1.264       .  A
O285        V290   1.900       .  S
O285        C294   1.266       .  A
O286        V290   1.902       .  S
O286        C293   1.265       .  A
O287        V290   1.893       .  S
O287        C292   1.263       .  A
O288        V290   1.896       .  S
O288        C291   1.264       .  A
V289        V290   2.087       .  T
C291        C447   1.478       .  S
C292        C660   1.471       .  S
C293        C732   1.478       .  S
C294        C396   1.480       .  S
O295        V303   1.906       .  S
O295        C305   1.267       .  A
O296        V303   1.902       .  S
O296        C306   1.266       .  A
O297        V303   1.896       .  S
O297        C307   1.263       .  A
O298        V303   1.900       .  S
O298        C308   1.264       .  A
O299        V304   1.903       .  S
O299        C308   1.266       .  A
O300        V304   1.902       .  S
O300        C307   1.265       .  A
O301        V304   1.895       .  S
O301        C306   1.263       .  A
O302        V304   1.897       .  S
O302        C305   1.264       .  A
V303        V304   2.087       .  T
C305        C423   1.481       .  S
C306        C996   1.477       .  S
C307        C495   1.474       .  S
C308        C372   1.480       .  S
O309        V317   1.903       .  S
O309        C319   1.265       .  A
O310        V317   1.901       .  S
O310        C320   1.265       .  A
O311        V317   1.898       .  S
O311        C321   1.264       .  A
O312        V317   1.900       .  S
O312        C322   1.265       .  A
O313        V318   1.903       .  S
O313        C322   1.265       .  A
O314        V318   1.902       .  S
O314        C321   1.266       .  A
O315        V318   1.900       .  S
O315        C320   1.264       .  A
O316        V318   1.898       .  S
O316        C319   1.265       .  A
V317        V318   2.087       .  T
C319        C399   1.480       .  S
C320       C1167   1.474       .  S
C321        C615   1.478       .  S
C322        C351   1.482       .  S
O323        V331   1.898       .  S
O323        C333   1.265       .  A
O324        V331   1.899       .  S
O324        C334   1.265       .  A
O325        V331   1.901       .  S
O325        C335   1.265       .  A
O326        V331   1.901       .  S
O326        C336   1.266       .  A
O327        V332   1.902       .  S
O327        C336   1.265       .  A
O328        V332   1.898       .  S
O328        C335   1.265       .  A
O329        V332   1.905       .  S
O329        C334   1.266       .  A
O330        V332   1.907       .  S
O330        C333   1.266       .  A
V331        V332   2.086       .  T
C333        C348   1.482       .  S
C334        C927   1.481       .  S
C335       C1143   1.478       .  S
C336        C375   1.482       .  S
C337        C338   1.401       .  A
C337        C342   1.404       .  A
C337        H353   1.084       .  S
C338        C339   1.404       .  A
C338        H354   1.083       .  S
C339        C349   1.407       .  A
C339        C340   1.412       .  A
C340        C346   1.411       .  A
C340        C341   1.413       .  A
C341        C343   1.411       .  A
C341        C342   1.411       .  A
C342        C350   1.406       .  A
C343        C352   1.402       .  A
C343        C344   1.403       .  A
C344        C345   1.398       .  A
C344        H355   1.083       .  S
C345        C346   1.403       .  A
C345        H356   1.084       .  S
C346        C347   1.402       .  A
C347        C348   1.407       .  A
C347        H357   1.084       .  S
C348        C349   1.408       .  A
C349        H358   1.084       .  S
C350        C351   1.408       .  A
C350        H359   1.084       .  S
C351        C352   1.406       .  A
C352        H360   1.084       .  S
C361        C362   1.401       .  A
C361        C366   1.404       .  A
C361        H377   1.084       .  S
C362        C363   1.404       .  A
C362        H378   1.084       .  S
C363        C373   1.405       .  A
C363        C364   1.411       .  A
C364        C370   1.412       .  A
C364        C365   1.413       .  A
C365        C367   1.411       .  A
C365        C366   1.412       .  A
C366        C374   1.406       .  A
C367        C376   1.402       .  A
C367        C368   1.403       .  A
C368        C369   1.398       .  A
C368        H379   1.084       .  S
C369        C370   1.403       .  A
C369        H380   1.084       .  S
C370        C371   1.403       .  A
C371        C372   1.405       .  A
C371        H381   1.084       .  S
C372        C373   1.408       .  A
C373        H382   1.084       .  S
C374        C375   1.408       .  A
C374        H383   1.084       .  S
C375        C376   1.407       .  A
C376        H384   1.084       .  S
C385        C386   1.398       .  A
C385        C390   1.403       .  A
C385        H401   1.084       .  S
C386        C387   1.403   1_655  A
C386        H402   1.083       .  S
C387        C397   1.402       .  A
C387        C388   1.412       .  A
C388        C394   1.411       .  A
C388        C389   1.412   1_455  A
C389        C391   1.412       .  A
C389        C390   1.411       .  A
C390        C398   1.401       .  A
C391        C400   1.406       .  A
C391        C392   1.404       .  A
C392        C393   1.400   1_655  A
C392        H403   1.083       .  S
C393        C394   1.404       .  A
C393        H404   1.084       .  S
C394        C395   1.405       .  A
C395        C396   1.408       .  A
C395        H405   1.084       .  S
C396        C397   1.406       .  A
C397        H406   1.084       .  S
C398        C399   1.406       .  A
C398        H407   1.084       .  S
C399        C400   1.408       .  A
C400        H408   1.084       .  S
C409        C410   1.399       .  A
C409        C414   1.403       .  A
C409        H425   1.084       .  S
C410        C411   1.404   1_655  A
C410        H426   1.083       .  S
C411        C421   1.403       .  A
C411        C412   1.411       .  A
C412        C418   1.412       .  A
C412        C413   1.413   1_455  A
C413        C415   1.411       .  A
C413        C414   1.412       .  A
C414        C422   1.404       .  A
C415        C424   1.404       .  A
C415        C416   1.404       .  A
C416        C417   1.400   1_655  A
C416        H427   1.083       .  S
C417        C418   1.404       .  A
C417        H428   1.084       .  S
C418        C419   1.406       .  A
C419        C420   1.407       .  A
C419        H429   1.084       .  S
C420        C421   1.407       .  A
C421        H430   1.084       .  S
C422        C423   1.407       .  A
C422        H431   1.084       .  S
C423        C424   1.408       .  A
C424        H432   1.084       .  S
C433        C434   1.399       .  A
C433        C438   1.403       .  A
C433        H449   1.084       .  S
C434        C435   1.403       .  A
C434        H450   1.083       .  S
C435        C445   1.402       .  A
C435        C436   1.411       .  A
C436        C442   1.412       .  A
C436        C437   1.412       .  A
C437        C439   1.411       .  A
C437        C438   1.412       .  A
C438        C446   1.402       .  A
C439        C448   1.403       .  A
C439        C440   1.404       .  A
C440        C441   1.399       .  A
C440        H451   1.083       .  S
C441        C442   1.404       .  A
C441        H452   1.084       .  S
C442        C443   1.404       .  A
C443        C444   1.407       .  A
C443        H453   1.084       .  S
C444        C445   1.407       .  A
C445        H454   1.084       .  S
C446        C447   1.406       .  A
C446        H455   1.084       .  S
C447        C448   1.407       .  A
C448        H456   1.084       .  S
C457        C458   1.401       .  A
C457        C462   1.404       .  A
C457        H473   1.083       .  S
C458        C459   1.405       .  A
C458        H474   1.084       .  S
C459        C469   1.406       .  A
C459        C460   1.411       .  A
C460        C466   1.411       .  A
C460        C461   1.412       .  A
C461        C463   1.411       .  A
C461        C462   1.412       .  A
C462        C470   1.407       .  A
C463        C472   1.400       .  A
C463        C464   1.402       .  A
C464        C465   1.397       .  A
C464        H475   1.084       .  S
C465        C466   1.403       .  A
C465        H476   1.083       .  S
C466        C467   1.400       .  A
C467        C468   1.406       .  A
C467        H477   1.084       .  S
C468        C469   1.409       .  A
C469        H478   1.084       .  S
C470        C471   1.407       .  A
C470        H479   1.084       .  S
C471        C472   1.405       .  A
C472        H480   1.085       .  S
C481        C482   1.400       .  A
C481        C486   1.404       .  A
C481        H497   1.084       .  S
C482        C483   1.404       .  A
C482        H498   1.084       .  S
C483        C493   1.404       .  A
C483        C484   1.412       .  A
C484        C490   1.411       .  A
C484        C485   1.411       .  A
C485        C487   1.412       .  A
C485        C486   1.412       .  A
C486        C494   1.403       .  A
C487        C496   1.401       .  A
C487        C488   1.403       .  A
C488        C489   1.398       .  A
C488        H499   1.084       .  S
C489        C490   1.403       .  A
C489        H500   1.084       .  S
C490        C491   1.401       .  A
C491        C492   1.406       .  A
C491        H501   1.084       .  S
C492        C493   1.407       .  A
C493        H502   1.084       .  S
C494        C495   1.406       .  A
C494        H503   1.084       .  S
C495        C496   1.405       .  A
C496        H504   1.084       .  S
C505        C506   1.399       .  A
C505        C510   1.404   1_554  A
C505        H521   1.083       .  S
C506        C507   1.404       .  A
C506        H522   1.084       .  S
C507        C517   1.401       .  A
C507        C508   1.411       .  A
C508        C514   1.412       .  A
C508        C509   1.410   1_554  A
C509        C511   1.411       .  A
C509        C510   1.412       .  A
C510        C518   1.402       .  A
C511        C520   1.400       .  A
C511        C512   1.403       .  A
C512        C513   1.397   1_556  A
C512        H523   1.084       .  S
C513        C514   1.402       .  A
C513        H524   1.084       .  S
C514        C515   1.400       .  A
C515        C516   1.404       .  A
C515        H525   1.084       .  S
C516        C517   1.406       .  A
C517        H526   1.084       .  S
C518        C519   1.407       .  A
C518        H527   1.084       .  S
C519        C520   1.406       .  A
C520        H528   1.084       .  S
C529        C530   1.400       .  A
C529        C534   1.404       .  A
C529        H545   1.084       .  S
C530        C531   1.404       .  A
C530        H546   1.084       .  S
C531        C541   1.403       .  A
C531        C532   1.411       .  A
C532        C538   1.411       .  A
C532        C533   1.409       .  A
C533        C535   1.411       .  A
C533        C534   1.412       .  A
C534        C542   1.403       .  A
C535        C544   1.398       .  A
C535        C536   1.402       .  A
C536        C537   1.396       .  A
C536        H547   1.084       .  S
C537        C538   1.402       .  A
C537        H548   1.084       .  S
C538        C539   1.398       .  A
C539        C540   1.404       .  A
C539        H549   1.084       .  S
C540        C541   1.407       .  A
C541        H550   1.084       .  S
C542        C543   1.406       .  A
C542        H551   1.084       .  S
C543        C544   1.403       .  A
C544        H552   1.084       .  S
C553        C554   1.399       .  A
C553        C558   1.404       .  A
C553        H569   1.084       .  S
C554        C555   1.404   1_655  A
C554        H570   1.084       .  S
C555        C565   1.404       .  A
C555        C556   1.412       .  A
C556        C562   1.411       .  A
C556        C557   1.411   1_455  A
C557        C559   1.412       .  A
C557        C558   1.411       .  A
C558        C566   1.403       .  A
C559        C568   1.400       .  A
C559        C560   1.402       .  A
C560        C561   1.397   1_655  A
C560        H571   1.084       .  S
C561        C562   1.403       .  A
C561        H572   1.084       .  S
C562        C563   1.400       .  A
C563        C564   1.406       .  A
C563        H573   1.084       .  S
C564        C565   1.407       .  A
C565        H574   1.084       .  S
C566        C567   1.407       .  A
C566        H575   1.084       .  S
C567        C568   1.404       .  A
C568        H576   1.084       .  S
C577        C578   1.397       .  A
C577        C582   1.402       .  A
C577        H593   1.084       .  S
C578        C579   1.403       .  A
C578        H594   1.084       .  S
C579        C589   1.399       .  A
C579        C580   1.411       .  A
C580        C586   1.412       .  A
C580        C581   1.410       .  A
C581        C583   1.411   1_565  A
C581        C582   1.412       .  A
C582        C590   1.400   1_565  A
C583        C592   1.402       .  A
C583        C584   1.404       .  A
C584        C585   1.400   1_545  A
C584        H595   1.084       .  S
C585        C586   1.404       .  A
C585        H596   1.083       .  S
C586        C587   1.405       .  A
C587        C588   1.407       .  A
C587        H597   1.084       .  S
C588        C589   1.405       .  A
C589        H598   1.084       .  S
C590        C591   1.404       .  A
C590        H599   1.084       .  S
C591        C592   1.407       .  A
C592        H600   1.084       .  S
C601        C602   1.399       .  A
C601        C606   1.403       .  A
C601        H617   1.084       .  S
C602        C603   1.403       .  A
C602        H618   1.084       .  S
C603        C613   1.402       .  A
C603        C604   1.411       .  A
C604        C610   1.412       .  A
C604        C605   1.411       .  A
C605        C607   1.411       .  A
C605        C606   1.412       .  A
C606        C614   1.403       .  A
C607        C616   1.402       .  A
C607        C608   1.404       .  A
C608        C609   1.399       .  A
C608        H619   1.084       .  S
C609        C610   1.403       .  A
C609        H620   1.084       .  S
C610        C611   1.403       .  A
C611        C612   1.406       .  A
C611        H621   1.084       .  S
C612        C613   1.406       .  A
C613        H622   1.084       .  S
C614        C615   1.406       .  A
C614        H623   1.084       .  S
C615        C616   1.407       .  A
C616        H624   1.084       .  S
C625        C626   1.399   1_545  A
C625        C630   1.404       .  A
C625        H641   1.084       .  S
C626        C627   1.403       .  A
C626        H642   1.083       .  S
C627        C637   1.403       .  A
C627        C628   1.412       .  A
C628        C634   1.411       .  A
C628        C629   1.411       .  A
C629        C631   1.411       .  A
C629        C630   1.411   1_565  A
C630        C638   1.403       .  A
C631        C640   1.402   1_565  A
C631        C632   1.403       .  A
C632        C633   1.398       .  A
C632        H643   1.083       .  S
C633        C634   1.403       .  A
C633        H644   1.084       .  S
C634        C635   1.402       .  A
C635        C636   1.405       .  A
C635        H645   1.084       .  S
C636        C637   1.406       .  A
C637        H646   1.084       .  S
C638        C639   1.407       .  A
C638        H647   1.084       .  S
C639        C640   1.407       .  A
C640        H648   1.084       .  S
C649        C650   1.398       .  A
C649        C654   1.403       .  A
C649        H665   1.084       .  S
C650        C651   1.403       .  A
C650        H666   1.084       .  S
C651        C661   1.402       .  A
C651        C652   1.412       .  A
C652        C658   1.411       .  A
C652        C653   1.409       .  A
C653        C655   1.412       .  A
C653        C654   1.411       .  A
C654        C662   1.400       .  A
C655        C664   1.400       .  A
C655        C656   1.402       .  A
C656        C657   1.397       .  A
C656        H667   1.084       .  S
C657        C658   1.403       .  A
C657        H668   1.084       .  S
C658        C659   1.399       .  A
C659        C660   1.405       .  A
C659        H669   1.084       .  S
C660        C661   1.404       .  A
C661        H670   1.084       .  S
C662        C663   1.406       .  A
C662        H671   1.084       .  S
C663        C664   1.404       .  A
C664        H672   1.084       .  S
C673        C674   1.397       .  A
C673        C678   1.403       .  A
C673        H689   1.084       .  S
C674        C675   1.403   1_554  A
C674        H690   1.084       .  S
C675        C685   1.400       .  A
C675        C676   1.411       .  A
C676        C682   1.412       .  A
C676        C677   1.408   1_556  A
C677        C679   1.411       .  A
C677        C678   1.412       .  A
C678        C686   1.400       .  A
C679        C688   1.399       .  A
C679        C680   1.403       .  A
C680        C681   1.397   1_554  A
C680        H691   1.084       .  S
C681        C682   1.403       .  A
C681        H692   1.084       .  S
C682        C683   1.400       .  A
C683        C684   1.404       .  A
C683        H693   1.084       .  S
C684        C685   1.405       .  A
C685        H694   1.084       .  S
C686        C687   1.405       .  A
C686        H695   1.084       .  S
C687        C688   1.405       .  A
C688        H696   1.084       .  S
C697        C698   1.398       .  A
C697        C702   1.403       .  A
C697        H713   1.083       .  S
C698        C699   1.403   1_655  A
C698        H714   1.084       .  S
C699        C709   1.403       .  A
C699        C700   1.411       .  A
C700        C706   1.411       .  A
C700        C701   1.414   1_455  A
C701        C703   1.412       .  A
C701        C702   1.411       .  A
C702        C710   1.403       .  A
C703        C712   1.407       .  A
C703        C704   1.404       .  A
C704        C705   1.401   1_655  A
C704        H715   1.084       .  S
C705        C706   1.404       .  A
C705        H716   1.083       .  S
C706        C707   1.406       .  A
C707        C708   1.409       .  A
C707        H717   1.084       .  S
C708        C709   1.407       .  A
C709        H718   1.084       .  S
C710        C711   1.407       .  A
C710        H719   1.084       .  S
C711        C712   1.408       .  A
C712        H720   1.084       .  S
C721        C722   1.401       .  A
C721        C726   1.404       .  A
C721        H737   1.084       .  S
C722        C723   1.404       .  A
C722        H738   1.083       .  S
C723        C733   1.405       .  A
C723        C724   1.412       .  A
C724        C730   1.411       .  A
C724        C725   1.411       .  A
C725        C727   1.411       .  A
C725        C726   1.412       .  A
C726        C734   1.405       .  A
C727        C736   1.400       .  A
C727        C728   1.403       .  A
C728        C729   1.397       .  A
C728        H739   1.084       .  S
C729        C730   1.403       .  A
C729        H740   1.084       .  S
C730        C731   1.400       .  A
C731        C732   1.405       .  A
C731        H741   1.084       .  S
C732        C733   1.408       .  A
C733        H742   1.084       .  S
C734        C735   1.407       .  A
C734        H743   1.084       .  S
C735        C736   1.404       .  A
C736        H744   1.084       .  S
C745        C746   1.398       .  A
C745        C750   1.403       .  A
C745        H761   1.084       .  S
C746        C747   1.403       .  A
C746        H762   1.084       .  S
C747        C757   1.403       .  A
C747        C748   1.412       .  A
C748        C754   1.412       .  A
C748        C749   1.413       .  A
C749        C751   1.412       .  A
C749        C750   1.411       .  A
C750        C758   1.403       .  A
C751        C760   1.406       .  A
C751        C752   1.404       .  A
C752        C753   1.401       .  A
C752        H763   1.084       .  S
C753        C754   1.404       .  A
C753        H764   1.084       .  S
C754        C755   1.405       .  A
C755        C756   1.407       .  A
C755        H765   1.084       .  S
C756        C757   1.405       .  A
C757        H766   1.084       .  S
C758        C759   1.406       .  A
C758        H767   1.084       .  S
C759        C760   1.409       .  A
C760        H768   1.084       .  S
C769        C770   1.399       .  A
C769        C774   1.404       .  A
C769        H785   1.084       .  S
C770        C771   1.403       .  A
C770        H786   1.084       .  S
C771        C781   1.403       .  A
C771        C772   1.411       .  A
C772        C778   1.412       .  A
C772        C773   1.412       .  A
C773        C775   1.411       .  A
C773        C774   1.411       .  A
C774        C782   1.403       .  A
C775        C784   1.403       .  A
C775        C776   1.403       .  A
C776        C777   1.399       .  A
C776        H787   1.084       .  S
C777        C778   1.403       .  A
C777        H788   1.084       .  S
C778        C779   1.403       .  A
C779        C780   1.406       .  A
C779        H789   1.084       .  S
C780        C781   1.406       .  A
C781        H790   1.084       .  S
C782        C783   1.407       .  A
C782        H791   1.084       .  S
C783        C784   1.407       .  A
C784        H792   1.084       .  S
C793        C794   1.397       .  A
C793        C798   1.402       .  A
C793        H809   1.084       .  S
C794        C795   1.403       .  A
C794        H810   1.084       .  S
C795        C805   1.400       .  A
C795        C796   1.412       .  A
C796        C802   1.411       .  A
C796        C797   1.411       .  A
C797        C799   1.413       .  A
C797        C798   1.411       .  A
C798        C806   1.398       .  A
C799        C808   1.405       .  A
C799        C800   1.404       .  A
C800        C801   1.400       .  A
C800        H811   1.083       .  S
C801        C802   1.404       .  A
C801        H812   1.084       .  S
C802        C803   1.404       .  A
C803        C804   1.408       .  A
C803        H813   1.084       .  S
C804        C805   1.406       .  A
C805        H814   1.084       .  S
C806        C807   1.403       .  A
C806        H815   1.085       .  S
C807        C808   1.405       .  A
C808        H816   1.084       .  S
C817        C818   1.399       .  A
C817        C822   1.404       .  A
C817        H833   1.084       .  S
C818        C819   1.404       .  A
C818        H834   1.084       .  S
C819        C829   1.404       .  A
C819        C820   1.411       .  A
C820        C826   1.412       .  A
C820        C821   1.413       .  A
C821        C823   1.411       .  A
C821        C822   1.412       .  A
C822        C830   1.404       .  A
C823        C832   1.403       .  A
C823        C824   1.404       .  A
C824        C825   1.399       .  A
C824        H835   1.084       .  S
C825        C826   1.404       .  A
C825        H836   1.083       .  S
C826        C827   1.405       .  A
C827        C828   1.406       .  A
C827        H837   1.084       .  S
C828        C829   1.407       .  A
C829        H838   1.084       .  S
C830        C831   1.407       .  A
C830        H839   1.084       .  S
C831        C832   1.407       .  A
C832        H840   1.084       .  S
C841        C842   1.398       .  A
C841        C846   1.403       .  A
C841        H857   1.083       .  S
C842        C843   1.403       .  A
C842        H858   1.084       .  S
C843        C853   1.402       .  A
C843        C844   1.412       .  A
C844        C850   1.411       .  A
C844        C845   1.412       .  A
C845        C847   1.412       .  A
C845        C846   1.411       .  A
C846        C854   1.402       .  A
C847        C856   1.404       .  A
C847        C848   1.404       .  A
C848        C849   1.399       .  A
C848        H859   1.084       .  S
C849        C850   1.404       .  A
C849        H860   1.084       .  S
C850        C851   1.403       .  A
C851        C852   1.408       .  A
C851        H861   1.084       .  S
C852        C853   1.406       .  A
C853        H862   1.084       .  S
C854        C855   1.405       .  A
C854        H863   1.084       .  S
C855        C856   1.407       .  A
C856        H864   1.084       .  S
C865        C866   1.399       .  A
C865        C870   1.403       .  A
C865        H881   1.084       .  S
C866        C867   1.403       .  A
C866        H882   1.084       .  S
C867        C877   1.402       .  A
C867        C868   1.411       .  A
C868        C874   1.411       .  A
C868        C869   1.412       .  A
C869        C871   1.412       .  A
C869        C870   1.412       .  A
C870        C878   1.403       .  A
C871        C880   1.403       .  A
C871        C872   1.404       .  A
C872        C873   1.399       .  A
C872        H883   1.084       .  S
C873        C874   1.403       .  A
C873        H884   1.084       .  S
C874        C875   1.403       .  A
C875        C876   1.407       .  A
C875        H885   1.084       .  S
C876        C877   1.407       .  A
C877        H886   1.084       .  S
C878        C879   1.405       .  A
C878        H887   1.084       .  S
C879        C880   1.406       .  A
C880        H888   1.084       .  S
C889        C890   1.401   1_565  A
C889        C894   1.404       .  A
C889        H905   1.083       .  S
C890        C891   1.405       .  A
C890        H906   1.084       .  S
C891        C901   1.408       .  A
C891        C892   1.412   1_545  A
C892        C898   1.411       .  A
C892        C893   1.414       .  A
C893        C895   1.412       .  A
C893        C894   1.412       .  A
C894        C902   1.407       .  A
C895        C904   1.403       .  A
C895        C896   1.403       .  A
C896        C897   1.399       .  A
C896        H907   1.084       .  S
C897        C898   1.404       .  A
C897        H908   1.083       .  S
C898        C899   1.404   1_565  A
C899        C900   1.408       .  A
C899        H909   1.084       .  S
C900        C901   1.409       .  A
C901        H910   1.084       .  S
C902        C903   1.408       .  A
C902        H911   1.084       .  S
C903        C904   1.407       .  A
C904        H912   1.084       .  S
C913        C914   1.400       .  A
C913        C918   1.404       .  A
C913        H929   1.084       .  S
C914        C915   1.404       .  A
C914        H930   1.083       .  S
C915        C925   1.406       .  A
C915        C916   1.412       .  A
C916        C922   1.411       .  A
C916        C917   1.413       .  A
C917        C919   1.412       .  A
C917        C918   1.412       .  A
C918        C926   1.405       .  A
C919        C928   1.403       .  A
C919        C920   1.403       .  A
C920        C921   1.398       .  A
C920        H931   1.083       .  S
C921        C922   1.403       .  A
C921        H932   1.084       .  S
C922        C923   1.402       .  A
C923        C924   1.406       .  A
C923        H933   1.084       .  S
C924        C925   1.407       .  A
C925        H934   1.084       .  S
C926        C927   1.407       .  A
C926        H935   1.084       .  S
C927        C928   1.406       .  A
C928        H936   1.084       .  S
C937        C938   1.398       .  A
C937        C942   1.403       .  A
C937        H953   1.084       .  S
C938        C939   1.404       .  A
C938        H954   1.084       .  S
C939        C949   1.401       .  A
C939        C940   1.411       .  A
C940        C946   1.412       .  A
C940        C941   1.408       .  A
C941        C943   1.411       .  A
C941        C942   1.412       .  A
C942        C950   1.402       .  A
C943        C952   1.397       .  A
C943        C944   1.402       .  A
C944        C945   1.396       .  A
C944        H955   1.084       .  S
C945        C946   1.402       .  A
C945        H956   1.084       .  S
C946        C947   1.398       .  A
C947        C948   1.404       .  A
C947        H957   1.084       .  S
C948        C949   1.406       .  A
C949        H958   1.084       .  S
C950        C951   1.405       .  A
C950        H959   1.084       .  S
C951        C952   1.404       .  A
C952        H960   1.084       .  S
C961        C962   1.396   1_545  A
C961        C966   1.402       .  A
C961        H977   1.084       .  S
C962        C963   1.402       .  A
C962        H978   1.083       .  S
C963        C973   1.398       .  A
C963        C964   1.411       .  A
C964        C970   1.412       .  A
C964        C965   1.410       .  A
C965        C967   1.411       .  A
C965        C966   1.411   1_565  A
C966        C974   1.399       .  A
C967        C976   1.404   1_565  A
C967        C968   1.404       .  A
C968        C969   1.400       .  A
C968        H979   1.083       .  S
C969        C970   1.404       .  A
C969        H980   1.084       .  S
C970        C971   1.404       .  A
C971        C972   1.407       .  A
C971        H981   1.084       .  S
C972        C973   1.404       .  A
C973        H982   1.084       .  S
C974        C975   1.404       .  A
C974        H983   1.085       .  S
C975        C976   1.407       .  A
C976        H984   1.084       .  S
C985        C986   1.397       .  A
C985        C990   1.403       .  A
C985       H1001   1.084       .  S
C986        C987   1.402       .  A
C986       H1002   1.084       .  S
C987        C997   1.401       .  A
C987        C988   1.412       .  A
C988        C994   1.411       .  A
C988        C989   1.412       .  A
C989        C991   1.413       .  A
C989        C990   1.411       .  A
C990        C998   1.399       .  A
C991       C1000   1.407       .  A
C991        C992   1.404       .  A
C992        C993   1.401       .  A
C992       H1003   1.084       .  S
C993        C994   1.405       .  A
C993       H1004   1.084       .  S
C994        C995   1.404       .  A
C995        C996   1.408       .  A
C995       H1005   1.084       .  S
C996        C997   1.404       .  A
C997       H1006   1.084       .  S
C998        C999   1.405       .  A
C998       H1007   1.084       .  S
C999       C1000   1.407       .  A
C1000      H1008   1.084       .  S
C1009      C1010   1.399       .  A
C1009      C1014   1.403       .  A
C1009      H1025   1.084       .  S
C1010      C1011   1.403       .  A
C1010      H1026   1.084       .  S
C1011      C1021   1.402       .  A
C1011      C1012   1.411       .  A
C1012      C1018   1.412       .  A
C1012      C1013   1.413       .  A
C1013      C1015   1.411       .  A
C1013      C1014   1.412       .  A
C1014      C1022   1.404       .  A
C1015      C1024   1.405       .  A
C1015      C1016   1.404       .  A
C1016      C1017   1.401       .  A
C1016      H1027   1.083       .  S
C1017      C1018   1.404       .  A
C1017      H1028   1.084       .  S
C1018      C1019   1.406       .  A
C1019      C1020   1.408       .  A
C1019      H1029   1.084       .  S
C1020      C1021   1.407       .  A
C1021      H1030   1.084       .  S
C1022      C1023   1.406       .  A
C1022      H1031   1.084       .  S
C1023      C1024   1.408       .  A
C1024      H1032   1.084       .  S
C1033      C1034   1.400       .  A
C1033      C1038   1.404       .  A
C1033      H1049   1.083       .  S
C1034      C1035   1.404       .  A
C1034      H1050   1.084       .  S
C1035      C1045   1.403       .  A
C1035      C1036   1.411       .  A
C1036      C1042   1.411       .  A
C1036      C1037   1.410       .  A
C1037      C1039   1.411       .  A
C1037      C1038   1.412       .  A
C1038      C1046   1.404       .  A
C1039      C1048   1.397       .  A
C1039      C1040   1.402       .  A
C1040      C1041   1.396       .  A
C1040      H1051   1.084       .  S
C1041      C1042   1.403       .  A
C1041      H1052   1.084       .  S
C1042      C1043   1.399       .  A
C1043      C1044   1.406       .  A
C1043      H1053   1.084       .  S
C1044      C1045   1.407       .  A
C1045      H1054   1.084       .  S
C1046      C1047   1.405       .  A
C1046      H1055   1.084       .  S
C1047      C1048   1.403       .  A
C1048      H1056   1.085       .  S
C1057      C1058   1.401       .  A
C1057      C1062   1.405       .  A
C1057      H1073   1.083       .  S
C1058      C1059   1.404       .  A
C1058      H1074   1.084       .  S
C1059      C1069   1.407       .  A
C1059      C1060   1.412       .  A
C1060      C1066   1.411       .  A
C1060      C1061   1.413       .  A
C1061      C1063   1.412       .  A
C1061      C1062   1.411       .  A
C1062      C1070   1.406       .  A
C1063      C1072   1.402       .  A
C1063      C1064   1.403       .  A
C1064      C1065   1.398       .  A
C1064      H1075   1.084       .  S
C1065      C1066   1.403       .  A
C1065      H1076   1.084       .  S
C1066      C1067   1.401       .  A
C1067      C1068   1.405       .  A
C1067      H1077   1.084       .  S
C1068      C1069   1.407       .  A
C1069      H1078   1.084       .  S
C1070      C1071   1.409       .  A
C1070      H1079   1.084       .  S
C1071      C1072   1.406       .  A
C1072      H1080   1.084       .  S
C1081      C1082   1.400       .  A
C1081      C1086   1.404       .  A
C1081      H1097   1.083       .  S
C1082      C1083   1.404       .  A
C1082      H1098   1.084       .  S
C1083      C1093   1.405       .  A
C1083      C1084   1.412       .  A
C1084      C1090   1.411       .  A
C1084      C1085   1.413       .  A
C1085      C1087   1.412       .  A
C1085      C1086   1.411       .  A
C1086      C1094   1.405       .  A
C1087      C1096   1.404       .  A
C1087      C1088   1.404       .  A
C1088      C1089   1.399       .  A
C1088      H1099   1.084       .  S
C1089      C1090   1.404       .  A
C1089      H1100   1.083       .  S
C1090      C1091   1.404       .  A
C1091      C1092   1.407       .  A
C1091      H1101   1.084       .  S
C1092      C1093   1.407       .  A
C1093      H1102   1.084       .  S
C1094      C1095   1.408       .  A
C1094      H1103   1.084       .  S
C1095      C1096   1.407       .  A
C1096      H1104   1.084       .  S
C1105      C1106   1.398       .  A
C1105      C1110   1.403       .  A
C1105      H1121   1.084       .  S
C1106      C1107   1.403       .  A
C1106      H1122   1.084       .  S
C1107      C1117   1.401       .  A
C1107      C1108   1.411       .  A
C1108      C1114   1.411       .  A
C1108      C1109   1.411       .  A
C1109      C1111   1.412       .  A
C1109      C1110   1.412       .  A
C1110      C1118   1.401       .  A
C1111      C1120   1.403       .  A
C1111      C1112   1.404       .  A
C1112      C1113   1.399       .  A
C1112      H1123   1.084       .  S
C1113      C1114   1.404       .  A
C1113      H1124   1.084       .  S
C1114      C1115   1.403       .  A
C1115      C1116   1.407       .  A
C1115      H1125   1.084       .  S
C1116      C1117   1.405       .  A
C1117      H1126   1.084       .  S
C1118      C1119   1.404       .  A
C1118      H1127   1.084       .  S
C1119      C1120   1.406       .  A
C1120      H1128   1.084       .  S
C1129      C1130   1.399       .  A
C1129      C1134   1.403       .  A
C1129      H1145   1.084       .  S
C1130      C1131   1.404       .  A
C1130      H1146   1.084       .  S
C1131      C1141   1.402       .  A
C1131      C1132   1.411       .  A
C1132      C1138   1.413       .  A
C1132      C1133   1.411       .  A
C1133      C1135   1.411       .  A
C1133      C1134   1.412       .  A
C1134      C1142   1.404       .  A
C1135      C1144   1.402       .  A
C1135      C1136   1.403       .  A
C1136      C1137   1.399       .  A
C1136      H1147   1.084       .  S
C1137      C1138   1.403       .  A
C1137      H1148   1.083       .  S
C1138      C1139   1.404       .  A
C1139      C1140   1.405       .  A
C1139      H1149   1.084       .  S
C1140      C1141   1.407       .  A
C1141      H1150   1.084       .  S
C1142      C1143   1.406       .  A
C1142      H1151   1.084       .  S
C1143      C1144   1.406       .  A
C1144      H1152   1.084       .  S
C1153      C1154   1.399       .  A
C1153      C1158   1.403       .  A
C1153      H1169   1.084       .  S
C1154      C1155   1.404       .  A
C1154      H1170   1.083       .  S
C1155      C1165   1.404       .  A
C1155      C1156   1.412       .  A
C1156      C1162   1.411       .  A
C1156      C1157   1.412       .  A
C1157      C1159   1.412       .  A
C1157      C1158   1.412       .  A
C1158      C1166   1.404       .  A
C1159      C1168   1.403       .  A
C1159      C1160   1.403       .  A
C1160      C1161   1.399       .  A
C1160      H1171   1.084       .  S
C1161      C1162   1.404       .  A
C1161      H1172   1.084       .  S
C1162      C1163   1.403       .  A
C1163      C1164   1.408       .  A
C1163      H1173   1.084       .  S
C1164      C1165   1.407       .  A
C1165      H1174   1.084       .  S
C1166      C1167   1.405       .  A
C1166      H1175   1.084       .  S
C1167      C1168   1.405       .  A
C1168      H1176   1.084       .  S
C1177      C1178   1.399       .  A
C1177      C1182   1.404       .  A
C1177      H1193   1.084       .  S
C1178      C1179   1.404       .  A
C1178      H1194   1.083       .  S
C1179      C1189   1.403       .  A
C1179      C1180   1.412       .  A
C1180      C1186   1.411       .  A
C1180      C1181   1.410       .  A
C1181      C1183   1.412       .  A
C1181      C1182   1.411       .  A
C1182      C1190   1.403       .  A
C1183      C1192   1.399       .  A
C1183      C1184   1.402       .  A
C1184      C1185   1.397       .  A
C1184      H1195   1.084       .  S
C1185      C1186   1.403       .  A
C1185      H1196   1.084       .  S
C1186      C1187   1.399       .  A
C1187      C1188   1.404       .  A
C1187      H1197   1.085       .  S
C1188      C1189   1.405       .  A
C1189      H1198   1.084       .  S
C1190      C1191   1.407       .  A
C1190      H1199   1.084       .  S
C1191      C1192   1.404       .  A
C1192      H1200   1.084       .  S
C1201      C1202   1.398       .  A
C1201      C1206   1.403       .  A
C1201      H1217   1.084       .  S
C1202      C1203   1.403       .  A
C1202      H1218   1.084       .  S
C1203      C1213   1.401       .  A
C1203      C1204   1.411       .  A
C1204      C1210   1.412       .  A
C1204      C1205   1.412       .  A
C1205      C1207   1.411       .  A
C1205      C1206   1.412       .  A
C1206      C1214   1.402       .  A
C1207      C1216   1.405       .  A
C1207      C1208   1.404       .  A
C1208      C1209   1.400       .  A
C1208      H1219   1.083       .  S
C1209      C1210   1.404       .  A
C1209      H1220   1.084       .  S
C1210      C1211   1.406       .  A
C1211      C1212   1.406       .  A
C1211      H1221   1.084       .  S
C1212      C1213   1.406       .  A
C1213      H1222   1.084       .  S
C1214      C1215   1.407       .  A
C1214      H1223   1.084       .  S
C1215      C1216   1.408       .  A
C1216      H1224   1.084       .  S
C1225      C1226   1.400       .  A
C1225      C1230   1.404       .  A
C1225      H1241   1.084       .  S
C1226      C1227   1.404       .  A
C1226      H1242   1.083       .  S
C1227      C1237   1.404       .  A
C1227      C1228   1.412       .  A
C1228      C1234   1.411       .  A
C1228      C1229   1.411       .  A
C1229      C1231   1.412       .  A
C1229      C1230   1.411       .  A
C1230      C1238   1.404       .  A
C1231      C1240   1.402       .  A
C1231      C1232   1.403       .  A
C1232      C1233   1.397       .  A
C1232      H1243   1.083       .  S
C1233      C1234   1.403       .  A
C1233      H1244   1.084       .  S
C1234      C1235   1.400       .  A
C1235      C1236   1.405       .  A
C1235      H1245   1.084       .  S
C1236      C1237   1.407       .  A
C1237      H1246   1.084       .  S
C1238      C1239   1.408       .  A
C1238      H1247   1.084       .  S
C1239      C1240   1.405       .  A
C1240      H1248   1.084       .  S
C1249      C1250   1.398       .  A
C1249      C1254   1.403       .  A
C1249      H1265   1.084       .  S
C1250      C1251   1.403       .  A
C1250      H1266   1.084       .  S
C1251      C1261   1.403       .  A
C1251      C1252   1.412       .  A
C1252      C1258   1.411       .  A
C1252      C1253   1.412       .  A
C1253      C1255   1.413       .  A
C1253      C1254   1.411       .  A
C1254      C1262   1.401       .  A
C1255      C1264   1.405       .  A
C1255      C1256   1.404       .  A
C1256      C1257   1.400       .  A
C1256      H1267   1.083       .  S
C1257      C1258   1.404       .  A
C1257      H1268   1.084       .  S
C1258      C1259   1.404       .  A
C1259      C1260   1.409       .  A
C1259      H1269   1.084       .  S
C1260      C1261   1.406       .  A
C1261      H1270   1.084       .  S
C1262      C1263   1.406       .  A
C1262      H1271   1.084       .  S
C1263      C1264   1.406       .  A
C1264      H1272   1.084       .  S
C1273      C1274   1.400       .  A
C1273      C1278   1.404       .  A
C1273      H1289   1.084       .  S
C1274      C1275   1.404       .  A
C1274      H1290   1.084       .  S
C1275      C1285   1.406       .  A
C1275      C1276   1.412       .  A
C1276      C1282   1.411       .  A
C1276      C1277   1.413       .  A
C1277      C1279   1.412       .  A
C1277      C1278   1.411       .  A
C1278      C1286   1.405       .  A
C1279      C1288   1.404       .  A
C1279      C1280   1.403       .  A
C1280      C1281   1.399       .  A
C1280      H1291   1.084       .  S
C1281      C1282   1.403       .  A
C1281      H1292   1.083       .  S
C1282      C1283   1.403       .  A
C1283      C1284   1.406       .  A
C1283      H1293   1.084       .  S
C1284      C1285   1.407       .  A
C1285      H1294   1.084       .  S
C1286      C1287   1.408       .  A
C1286      H1295   1.084       .  S
C1287      C1288   1.406       .  A
C1288      H1296   1.084       .  S
C1297      C1298   1.398       .  A
C1297      C1302   1.403       .  A
C1297      H1313   1.084       .  S
C1298      C1299   1.403       .  A
C1298      H1314   1.083       .  S
C1299      C1309   1.403       .  A
C1299      C1300   1.412       .  A
C1300      C1306   1.412       .  A
C1300      C1301   1.414       .  A
C1301      C1303   1.412       .  A
C1301      C1302   1.411       .  A
C1302      C1310   1.402       .  A
C1303      C1312   1.406       .  A
C1303      C1304   1.404       .  A
C1304      C1305   1.401       .  A
C1304      H1315   1.083       .  S
C1305      C1306   1.405       .  A
C1305      H1316   1.083       .  S
C1306      C1307   1.407       .  A
C1307      C1308   1.408       .  A
C1307      H1317   1.084       .  S
C1308      C1309   1.406       .  A
C1309      H1318   1.084       .  S
C1310      C1311   1.406       .  A
C1310      H1319   1.084       .  S
C1311      C1312   1.408       .  A
C1312      H1320   1.084       .  S
C1321      C1322   1.400       .  A
C1321      C1326   1.404       .  A
C1321      H1337   1.083       .  S
C1322      C1323   1.404       .  A
C1322      H1338   1.084       .  S
C1323      C1333   1.405       .  A
C1323      C1324   1.412       .  A
C1324      C1330   1.411       .  A
C1324      C1325   1.413       .  A
C1325      C1327   1.412       .  A
C1325      C1326   1.411       .  A
C1326      C1334   1.405       .  A
C1327      C1336   1.403       .  A
C1327      C1328   1.403       .  A
C1328      C1329   1.399       .  A
C1328      H1339   1.084       .  S
C1329      C1330   1.403       .  A
C1329      H1340   1.084       .  S
C1330      C1331   1.403       .  A
C1331      C1332   1.406       .  A
C1331      H1341   1.084       .  S
C1332      C1333   1.406       .  A
C1333      H1342   1.084       .  S
C1334      C1335   1.408       .  A
C1334      H1343   1.084       .  S
C1335      C1336   1.407       .  A
C1336      H1344   1.084       .  S
C1345      C1346   1.398       .  A
C1345      C1350   1.403       .  A
C1345      H1361   1.084       .  S
C1346      C1347   1.403   1_554  A
C1346      H1362   1.083       .  S
C1347      C1357   1.402       .  A
C1347      C1348   1.411       .  A
C1348      C1354   1.412       .  A
C1348      C1349   1.413   1_556  A
C1349      C1351   1.412       .  A
C1349      C1350   1.411       .  A
C1350      C1358   1.402       .  A
C1351      C1360   1.407       .  A
C1351      C1352   1.405       .  A
C1352      C1353   1.401   1_554  A
C1352      H1363   1.083       .  S
C1353      C1354   1.405       .  A
C1353      H1364   1.084       .  S
C1354      C1355   1.407       .  A
C1355      C1356   1.409       .  A
C1355      H1365   1.084       .  S
C1356      C1357   1.407       .  A
C1357      H1366   1.084       .  S
C1358      C1359   1.406       .  A
C1358      H1367   1.084       .  S
C1359      C1360   1.409       .  A
C1360      H1368   1.084       .  S
C1369      C1370   1.400       .  A
C1369      C1374   1.404       .  A
C1369      H1385   1.084       .  S
C1370      C1371   1.404       .  A
C1370      H1386   1.083       .  S
C1371      C1381   1.405       .  A
C1371      C1372   1.412       .  A
C1372      C1378   1.411       .  A
C1372      C1373   1.414       .  A
C1373      C1375   1.412       .  A
C1373      C1374   1.411       .  A
C1374      C1382   1.405       .  A
C1375      C1384   1.406       .  A
C1375      C1376   1.404       .  A
C1376      C1377   1.400       .  A
C1376      H1387   1.083       .  S
C1377      C1378   1.404       .  A
C1377      H1388   1.084       .  S
C1378      C1379   1.406       .  A
C1379      C1380   1.408       .  A
C1379      H1389   1.084       .  S
C1380      C1381   1.407       .  A
C1381      H1390   1.084       .  S
C1382      C1383   1.407       .  A
C1382      H1391   1.084       .  S
C1383      C1384   1.408       .  A
C1384      H1392   1.084       .  S
C1393      C1394   1.395       .  A
C1393      C1398   1.402       .  A
C1393      H1409   1.084       .  S
C1394      C1395   1.402       .  A
C1394      H1410   1.084       .  S
C1395      C1405   1.398       .  A
C1395      C1396   1.412       .  A
C1396      C1402   1.411       .  A
C1396      C1397   1.409       .  A
C1397      C1399   1.412       .  A
C1397      C1398   1.410       .  A
C1398      C1406   1.396       .  A
C1399      C1408   1.404       .  A
C1399      C1400   1.404       .  A
C1400      C1401   1.400       .  A
C1400      H1411   1.083       .  S
C1401      C1402   1.404       .  A
C1401      H1412   1.084       .  S
C1402      C1403   1.402       .  A
C1403      C1404   1.405       .  A
C1403      H1413   1.084       .  S
C1404      C1405   1.402       .  A
C1405      H1414   1.085       .  S
C1406      C1407   1.405       .  A
C1406      H1415   1.084       .  S
C1407      C1408   1.407       .  A
C1408      H1416   1.084       .  S
C1417      C1418   1.397       .  A
C1417      C1422   1.403       .  A
C1417      H1433   1.084       .  S
C1418      C1419   1.403       .  A
C1418      H1434   1.084       .  S
C1419      C1429   1.401       .  A
C1419      C1420   1.412       .  A
C1420      C1426   1.411       .  A
C1420      C1421   1.410       .  A
C1421      C1423   1.412       .  A
C1421      C1422   1.411       .  A
C1422      C1430   1.399       .  A
C1423      C1432   1.403       .  A
C1423      C1424   1.403       .  A
C1424      C1425   1.399       .  A
C1424      H1435   1.084       .  S
C1425      C1426   1.404       .  A
C1425      H1436   1.084       .  S
C1426      C1427   1.403       .  A
C1427      C1428   1.407       .  A
C1427      H1437   1.084       .  S
C1428      C1429   1.405       .  A
C1429      H1438   1.084       .  S
C1430      C1431   1.404       .  A
C1430      H1439   1.085       .  S
C1431      C1432   1.405       .  A
C1432      H1440   1.084       .  S
C1441      C1442   1.399   1_554  A
C1441      C1446   1.404       .  A
C1441      H1457   1.083       .  S
C1442      C1443   1.404       .  A
C1442      H1458   1.084       .  S
C1443      C1453   1.404       .  A
C1443      C1444   1.412       .  A
C1444      C1450   1.411       .  A
C1444      C1445   1.412   1_556  A
C1445      C1447   1.412       .  A
C1445      C1446   1.411       .  A
C1446      C1454   1.403       .  A
C1447      C1456   1.403       .  A
C1447      C1448   1.403       .  A
C1448      C1449   1.398       .  A
C1448      H1459   1.084       .  S
C1449      C1450   1.403   1_554  A
C1449      H1460   1.083       .  S
C1450      C1451   1.401       .  A
C1451      C1452   1.405       .  A
C1451      H1461   1.084       .  S
C1452      C1453   1.407       .  A
C1453      H1462   1.084       .  S
C1454      C1455   1.408       .  A
C1454      H1463   1.084       .  S
C1455      C1456   1.406       .  A
C1456      H1464   1.084       .  S
C1465      C1466   1.399       .  A
C1465      C1470   1.404       .  A
C1465      H1481   1.084       .  S
C1466      C1467   1.404       .  A
C1466      H1482   1.084       .  S
C1467      C1477   1.403       .  A
C1467      C1468   1.411       .  A
C1468      C1474   1.411       .  A
C1468      C1469   1.411       .  A
C1469      C1471   1.411       .  A
C1469      C1470   1.412       .  A
C1470      C1478   1.403       .  A
C1471      C1480   1.401       .  A
C1471      C1472   1.403       .  A
C1472      C1473   1.398       .  A
C1472      H1483   1.084       .  S
C1473      C1474   1.403       .  A
C1473      H1484   1.084       .  S
C1474      C1475   1.401       .  A
C1475      C1476   1.406       .  A
C1475      H1485   1.084       .  S
C1476      C1477   1.407       .  A
C1477      H1486   1.084       .  S
C1478      C1479   1.406       .  A
C1478      H1487   1.084       .  S
C1479      C1480   1.405       .  A
C1480      H1488   1.084       .  S
