geometry optimzed in LAMMPS
_audit_creation_date              2020-12-01 
_audit_creation_method            'lammps2cif' 
_symmetry_space_group_name_H-M    'P1' 
_symmetry_Int_Tables_number       1 
_symmetry_cell_setting            triclinic 
loop_ 
_symmetry_equiv_pos_as_xyz 
  x,y,z 
_cell_length_a                    110.24193639 
_cell_length_b                    110.22875084959477 
_cell_length_c                    29.02536718208077 
_cell_angle_alpha                 89.916135229803 
_cell_angle_beta                  89.91921147861633 
_cell_angle_gamma                 119.92991184914784 
loop_ 
_atom_site_label 
_atom_site_type_symbol 
_atom_site_fract_x 
_atom_site_fract_y 
_atom_site_fract_z 
_atom_site_charge 
O1          O  0.24966285  0.89952472  0.62923590    -0.56800
C2          C  0.25008684  0.89319592  0.48452203     0.75800
O3          O  0.27410794  0.88090789  0.58564462    -0.58000
C4          C  0.24696405  0.89154425  0.66390163     0.75800
C5          C  0.23055281  0.85581236  0.57115095     0.78100
Cd6        Cd  0.25336785  0.88409963  0.57550253     1.37500
O7          O  0.24700894  0.89743456  0.52091459    -0.56800
O8          O  0.22883916  0.86632538  0.56973852    -0.55700
C9          C  0.28274580  0.89375483  0.59267347     0.78100
O10         O  0.24307154  0.85827570  0.57407469    -0.58000
O11         O  0.25531700  0.88536078  0.49036689    -0.56500
O12         O  0.24700590  0.88024184  0.65718685    -0.56500
O13         O  0.27790673  0.90197113  0.58863635    -0.55600
O14         O  0.41451007  0.97688803  0.81417685    -0.56800
C15         C  0.41692253  0.97207063  0.67078997     0.75800
O16         O  0.41895395  0.94145709  0.76818488    -0.58000
C17         C  0.41067876  0.96922969  0.84992411     0.75800
C18         C  0.37990000  0.94032675  0.73331873     0.78100
Cd19       Cd  0.40910477  0.95770351  0.75852520     1.37500
O20         O  0.41884376  0.97886401  0.70795507    -0.56800
O21         O  0.38521782  0.95322528  0.74237673    -0.55700
C22         C  0.43155467  0.95107731  0.76211228     0.78100
O23         O  0.38774611  0.93510307  0.73992991    -0.58000
O24         O  0.41126431  0.95894980  0.67524605    -0.56500
O25         O  0.40537732  0.95622188  0.84285068    -0.56500
O26         O  0.43343060  0.96324955  0.75618168    -0.55600
O27         O  0.42897309  0.00722856  0.20498221    -0.56800
C28         C  0.43801939  0.01402623  0.34818462     0.75800
O29         O  0.47020733  0.04235203  0.24951665    -0.58000
C30         C  0.43448398  0.01392758  0.16809235     0.75800
C31         C  0.43457569  0.04631584  0.27145505     0.78100
Cd32       Cd  0.44447896  0.02677269  0.25761897     1.37500
O33         O  0.43141677  0.00708568  0.31290769    -0.56800
O34         O  0.42641725  0.03326539  0.26764935    -0.55700
C35         C  0.47298339  0.03250351  0.25244534     0.78100
O36         O  0.44750839  0.05057902  0.26620230    -0.58000
O37         O  0.44731588  0.02661018  0.34106228    -0.56500
O38         O  0.44401570  0.02655202  0.17283596    -0.56500
O39         O  0.46259747  0.02028641  0.25665530    -0.55600
O40         O  0.34596464  0.09361108  0.44590170    -0.56800
C41         C  0.35415971  0.10066444  0.30178050     0.75800
O42         O  0.38193675  0.13360517  0.40379287    -0.58000
C43         C  0.35335840  0.09715873  0.48214738     0.75800
C44         C  0.38472900  0.09717563  0.38015515     0.78100
Cd45       Cd  0.36594260  0.10790033  0.39297588     1.37500
O46         O  0.34624091  0.09626086  0.33694664    -0.56800
O47         O  0.37158760  0.08934409  0.38328715    -0.55700
C48         C  0.37233671  0.13665156  0.39890978     0.78100
O49         O  0.38935524  0.11018670  0.38545898    -0.58000
O50         O  0.36711163  0.10832707  0.30921657    -0.56500
O51         O  0.36639344  0.10497361  0.47635467    -0.56500
O52         O  0.36015569  0.12651428  0.39192379    -0.55600
O53         O  0.23249576  0.91226052  0.12702220    -0.56800
C54         C  0.22772743  0.91433483  0.98538310     0.75800
O55         O  0.19392442  0.90990904  0.08228825    -0.58000
C56         C  0.22925704  0.91604184  0.16404585     0.75800
C57         C  0.23043336  0.94967128  0.05585541     0.78100
Cd58       Cd  0.21991414  0.92006811  0.07424223     1.37500
O59         O  0.23447446  0.91477985  0.02135434    -0.56800
O60         O  0.23843391  0.94464333  0.06176600    -0.55700
C61         C  0.19110890  0.89737637  0.07583631     0.78100
O62         O  0.21748690  0.94121253  0.06212860    -0.58000
O63         O  0.21754155  0.91641364  0.99116835    -0.56500
O64         O  0.22228947  0.92227186  0.15957506    -0.56500
O65         O  0.20150534  0.89567047  0.06965272    -0.55600
O66         O  0.31844457  0.07935110  0.83718687    -0.56800
C67         C  0.31611242  0.08101481  0.97796793     0.75800
O68         O  0.28502726  0.08627797  0.89174312    -0.58000
C69         C  0.31064738  0.07653040  0.80219588     0.75800
C70         C  0.28017397  0.04681789  0.91610106     0.78100
Cd71       Cd  0.30027375  0.07556754  0.89432056     1.37500
O72         O  0.32212304  0.08296469  0.93920118    -0.56800
O73         O  0.29261254  0.05057049  0.90419098    -0.55700
C74         C  0.29503631  0.09880682  0.89306096     0.78100
O75         O  0.27665592  0.05613788  0.91406013    -0.58000
O76         O  0.30316387  0.07685615  0.97740923    -0.56500
O77         O  0.29792517  0.07264783  0.81012280    -0.56500
O78         O  0.30719330  0.10037278  0.89425651    -0.55600
O79         O  0.68168124  0.91356625  0.02696098    -0.56800
C80         C  0.69102108  0.91558992  0.16798671     0.75800
O81         O  0.71764091  0.90783829  0.08185521    -0.58000
C82         C  0.68743155  0.91329078  0.98938954     0.75800
C83         C  0.72296585  0.94759157  0.05707089     0.78100
Cd84       Cd  0.70239891  0.91843937  0.07563526     1.37500
O85         O  0.68375054  0.91429475  0.13258385    -0.56800
O86         O  0.71055178  0.94375869  0.06944623    -0.55700
C87         C  0.70774974  0.89527974  0.07865928     0.78100
O88         O  0.72628118  0.93811897  0.05695420    -0.58000
O89         O  0.70360178  0.91882545  0.16064786    -0.56500
O90         O  0.69956910  0.91487302  0.99262015    -0.56500
O91         O  0.69560565  0.89360074  0.07367100    -0.55600
O92         O  0.76561024  0.07983701  0.85028361    -0.56800
C93         C  0.77505283  0.08217311  0.99014095     0.75800
O94         O  0.78339999  0.05366128  0.91194228    -0.58000
C95         C  0.76866092  0.07590561  0.81318172     0.75800
C96         C  0.80900740  0.09713906  0.88658375     0.78100
Cd97       Cd  0.78057244  0.07455994  0.90077536     1.37500
O98         O  0.76747968  0.08108480  0.95576870    -0.56800
O99         O  0.79870008  0.09908960  0.89111456    -0.55700
C100        C  0.77065157  0.04531120  0.92168103     0.78100
O101        O  0.80631864  0.08453336  0.88859697    -0.58000
O102        O  0.78500915  0.07984787  0.98261942    -0.56500
O103        O  0.77660323  0.07073253  0.81710111    -0.56500
O104        O  0.76255415  0.05032655  0.91900534    -0.55600
O105        O  0.75438903  0.09574228  0.45504054    -0.56800
C106        C  0.75641731  0.10376128  0.31452082     0.75800
O107        O  0.72569870  0.11104847  0.39760219    -0.58000
C108        C  0.74882152  0.09734960  0.49100639     0.75800
C109        C  0.76800573  0.13836969  0.41504853     0.78100
Cd110      Cd  0.74745417  0.10915673  0.40261372     1.37500
O111        O  0.75110829  0.09436610  0.34536600    -0.56800
O112        O  0.77079266  0.12863503  0.42070435    -0.55700
C113        C  0.71841263  0.09918816  0.37879113     0.78100
O114        O  0.75545917  0.13463365  0.40447173    -0.58000
O115        O  0.75824231  0.11562124  0.32589286    -0.56500
O116        O  0.74213047  0.10380934  0.48553983    -0.56500
O117        O  0.72435327  0.09201766  0.37326665    -0.55600
O118        O  0.58181565  0.00969019  0.31113012    -0.56800
C119        C  0.58517792  0.01749458  0.16501564     0.75800
O120        O  0.57855760  0.04573887  0.24855172    -0.58000
C121        C  0.58057839  0.01607607  0.34561771     0.75800
C122        C  0.61707384  0.04762585  0.27735993     0.78100
Cd123      Cd  0.58785219  0.02937423  0.25628374     1.37500
O124        O  0.58138505  0.00991069  0.20096555    -0.56800
O125        O  0.61176912  0.03454582  0.27223291    -0.55700
C126        C  0.56590822  0.03593487  0.24656484     0.78100
O127        O  0.60904570  0.05254176  0.26935109    -0.58000
O128        O  0.59101244  0.03056318  0.17173053    -0.56500
O129        O  0.58209709  0.02803779  0.33773274    -0.56500
O130        O  0.56377006  0.02357680  0.24967155    -0.55600
O131        O  0.56691736  0.98020706  0.81017825    -0.56800
C132        C  0.56053285  0.97615583  0.66995142     0.75800
O133        O  0.55087533  0.93757579  0.73538040    -0.58000
C134        C  0.56280598  0.97284128  0.84649586     0.75800
C135        C  0.52431074  0.95352942  0.76431329     0.78100
Cd136      Cd  0.55331101  0.96076901  0.75553430     1.37500
O137        O  0.56877449  0.98063918  0.70407083    -0.56800
O138        O  0.53432195  0.96603758  0.76339295    -0.55700
C139        C  0.56387815  0.94219804  0.73016874     0.78100
O140        O  0.52762038  0.94404696  0.76146202    -0.58000
O141        O  0.54899124  0.96504788  0.67629782    -0.56500
O142        O  0.55497657  0.95979212  0.84065777    -0.56500
O143        O  0.57178647  0.95495599  0.73999586    -0.55600
O144        O  0.65256381  0.90086017  0.63299472    -0.56800
C145        C  0.64766903  0.89538555  0.48847038     0.75800
O146        O  0.61613007  0.86017628  0.57339262    -0.58000
C147        C  0.64792316  0.89220538  0.66612339     0.75800
C148        C  0.61518268  0.89567826  0.59600007     0.78100
Cd149      Cd  0.63423222  0.88542370  0.57756109     1.37500
O150        O  0.65475762  0.89703720  0.52460857    -0.56800
O151        O  0.62831133  0.90366647  0.59471799    -0.55700
C152        C  0.62489725  0.85610166  0.56661571     0.78100
O153        O  0.61074419  0.88296249  0.58602442    -0.58000
O154        O  0.63459741  0.88996407  0.49417701    -0.56500
O155        O  0.63759980  0.88027883  0.65739195    -0.56500
O156        O  0.63766588  0.86551420  0.56551674    -0.55600
O157        O  0.75117397  0.64594601  0.46095074    -0.56800
C158        C  0.75118698  0.64090496  0.31866329     0.75800
O159        O  0.75413608  0.61000884  0.41429521    -0.58000
C160        C  0.74626411  0.63833770  0.49657422     0.75800
C161        C  0.71595995  0.60637165  0.38371139     0.78100
Cd162      Cd  0.74475367  0.62634893  0.40619608     1.37500
O163        O  0.74607716  0.64446270  0.35160209    -0.56800
O164        O  0.71972448  0.61861590  0.39756546    -0.55700
C165        C  0.76679655  0.61966069  0.41820447     0.78100
O166        O  0.72532655  0.60289924  0.38374527    -0.58000
O167        O  0.75401250  0.63134745  0.32711528    -0.56500
O168        O  0.74022374  0.62525615  0.48990240    -0.56500
O169        O  0.76903233  0.63209059  0.41687276    -0.55600
O170        O  0.58286420  0.56313705  0.18155434    -0.56800
C171        C  0.58290989  0.55591542  0.32258752     0.75800
O172        O  0.57983268  0.52288301  0.21950959    -0.58000
C173        C  0.58580337  0.55935281  0.14395761     0.75800
C174        C  0.61847354  0.55897091  0.24798213     0.78100
Cd175      Cd  0.58878789  0.54850425  0.23244260     1.37500
O176        O  0.57972995  0.55995328  0.28589861    -0.56800
O177        O  0.61349308  0.56707098  0.24356447    -0.55700
C178        C  0.56721678  0.51916472  0.22887695     0.78100
O179        O  0.60988259  0.54607950  0.24174890    -0.58000
O180        O  0.58872369  0.54862589  0.31687828    -0.56500
O181        O  0.59041680  0.55093579  0.14747419    -0.56500
O182        O  0.56480409  0.52889274  0.23922074    -0.55600
O183        O  0.65436175  0.75235954  0.52244964    -0.56800
C184        C  0.64884330  0.75186690  0.66530577     0.75800
O185        O  0.61747309  0.75367459  0.57054484    -0.58000
C186        C  0.64690049  0.74697159  0.48698873     0.75800
C187        C  0.61817250  0.71603934  0.60004289     0.78100
Cd188      Cd  0.63480186  0.74531518  0.57731259     1.37500
O189        O  0.65577236  0.75447306  0.62807401    -0.56800
O190        O  0.63124796  0.72202735  0.59324648    -0.55700
C191        C  0.62655853  0.76655543  0.57385177     0.78100
O192        O  0.61240913  0.72335569  0.59249213    -0.58000
O193        O  0.63576755  0.74650293  0.66072988    -0.56500
O194        O  0.63378270  0.74037892  0.49340940    -0.56500
O195        O  0.63909601  0.76930450  0.57757690    -0.55600
O196        O  0.56889254  0.57844607  0.78709282    -0.56800
C197        C  0.56386943  0.57960668  0.64403035     0.75800
O198        O  0.53042331  0.57668430  0.73707434    -0.58000
C199        C  0.56608484  0.58291593  0.82346322     0.75800
C200        C  0.56856251  0.61559242  0.71485901     0.78100
Cd201      Cd  0.55643278  0.58596834  0.73298516     1.37500
O202        O  0.57006049  0.57922364  0.68039606    -0.56800
O203        O  0.57569407  0.60949694  0.71658541    -0.55700
C204        C  0.52716761  0.56391836  0.73405631     0.78100
O205        O  0.55567676  0.60823277  0.72507265    -0.58000
O206        O  0.55453903  0.58297008  0.64932104    -0.56500
O207        O  0.55927657  0.58926894  0.81796976    -0.56500
O208        O  0.53733151  0.56167373  0.73192641    -0.55600
O209        O  0.68261495  0.76357200  0.12955558    -0.56800
C210        C  0.69017254  0.77014598  0.98756647     0.75800
O211        O  0.71993864  0.80220872  0.08285963    -0.58000
C212        C  0.68961689  0.76604995  0.16641512     0.75800
C213        C  0.72181207  0.76581808  0.06140764     0.78100
Cd214      Cd  0.70308458  0.77648736  0.07766456     1.37500
O215        O  0.68401669  0.76223710  0.02171566    -0.56800
O216        O  0.70881436  0.75785437  0.06763574    -0.55700
C217        C  0.71042084  0.80536980  0.08802594     0.78100
O218        O  0.72641966  0.77882242  0.06633296    -0.58000
O219        O  0.70191468  0.78080012  0.99566998    -0.56500
O220        O  0.70280697  0.77285773  0.16189353    -0.56500
O221        O  0.69794904  0.79530963  0.08838236    -0.55600
O222        O  0.76104887  0.67502980  0.85081841    -0.56800
C223        C  0.76720034  0.67969884  0.99409910     0.75800
O224        O  0.80183128  0.70837686  0.90019099    -0.58000
C225        C  0.76668872  0.68229650  0.81499941     0.75800
C226        C  0.76742737  0.71410216  0.92553199     0.78100
Cd227      Cd  0.77598437  0.69368892  0.90622800     1.37500
O228        O  0.76083558  0.67348478  0.95756104    -0.56800
O229        O  0.75872671  0.70149105  0.91593350    -0.55700
C230        C  0.80415141  0.69820764  0.90176982     0.78100
O231        O  0.78024001  0.71764611  0.92202476    -0.58000
O232        O  0.77755505  0.69188377  0.98918781    -0.56500
O233        O  0.77597307  0.69493428  0.82152786    -0.56500
O234        O  0.79349601  0.68613001  0.90517651    -0.55600
O235        O  0.34726928  0.24517144  0.32900272    -0.56800
C236        C  0.35186226  0.24788624  0.47363538     0.75800
O237        O  0.38197022  0.24048067  0.40042101    -0.58000
C238        C  0.35295680  0.24189167  0.29706449     0.75800
C239        C  0.38467893  0.27823689  0.36171492     0.78100
Cd240      Cd  0.36556140  0.24941377  0.38690824     1.37500
O241        O  0.34493841  0.24295210  0.43689727    -0.56800
O242        O  0.37154852  0.27303267  0.36345122    -0.55700
C243        C  0.37238635  0.22774644  0.40284986     0.78100
O244        O  0.38934997  0.27040085  0.37526145    -0.58000
O245        O  0.36504883  0.25409875  0.46951784    -0.56500
O246        O  0.36369896  0.24123906  0.30818805    -0.56500
O247        O  0.35994564  0.22526121  0.39815871    -0.55600
O248        O  0.43286702  0.41382694  0.17341830    -0.56800
C249        C  0.44097977  0.41676213  0.31656239     0.75800
O250        O  0.44808234  0.38678853  0.24588451    -0.58000
C251        C  0.43686261  0.41029008  0.13742209     0.75800
C252        C  0.47590340  0.42903476  0.21815042     0.78100
Cd253      Cd  0.44676282  0.40823477  0.22863850     1.37500
O254        O  0.43547546  0.41804101  0.27983876    -0.56800
O255        O  0.46634110  0.43206169  0.22345867    -0.55700
C256        C  0.43498393  0.37877939  0.25025371     0.78100
O257        O  0.47209438  0.41611298  0.21782735    -0.58000
O258        O  0.44902913  0.41175727  0.31210844    -0.56500
O259        O  0.44474370  0.40515993  0.14409113    -0.56500
O260        O  0.42746362  0.38421817  0.24177462    -0.55600
O261        O  0.23587348  0.31868677  0.10599675    -0.56800
C262        C  0.22579576  0.31248041  0.96364116     0.75800
O263        O  0.22100518  0.27618397  0.03831700    -0.58000
C264        C  0.23393945  0.31106392  0.14111068     0.75800
C265        C  0.19261987  0.28946435  0.06763693     0.78100
Cd266      Cd  0.22193386  0.29883359  0.05206486     1.37500
O267        O  0.23299715  0.31929127  0.99822691    -0.56800
O268        O  0.20197453  0.30224883  0.06660215    -0.55700
C269        C  0.23372657  0.28156399  0.02634926     0.78100
O270        O  0.19678405  0.28071094  0.06239018    -0.58000
O271        O  0.21694999  0.29974819  0.97073330    -0.56500
O272        O  0.22707428  0.29799069  0.13426545    -0.56500
O273        O  0.24100706  0.29476456  0.02882966    -0.55600
O274        O  0.31949744  0.23123679  0.83286390    -0.56800
C275        C  0.31502263  0.22429769  0.97192735     0.75800
O276        O  0.27683210  0.21742166  0.89457711    -0.58000
C277        C  0.31197584  0.22872827  0.79731534     0.75800
C278        C  0.29306500  0.18930025  0.88093896     0.78100
Cd279      Cd  0.29986944  0.21815686  0.88708445     1.37500
O280        O  0.32042182  0.23203404  0.93681340    -0.56800
O281        O  0.30527777  0.19954712  0.87541280    -0.55700
C282        C  0.28213522  0.22958042  0.91190959     0.78100
O283        O  0.28347308  0.19226501  0.88808401    -0.58000
O284        O  0.30286108  0.21389139  0.96714387    -0.56500
O285        O  0.29885743  0.22195604  0.80362858    -0.56500
O286        O  0.29532902  0.23638485  0.91496089    -0.55600
O287        O  0.25233346  0.34667424  0.49575062    -0.56800
C288        C  0.24511192  0.35071135  0.63747200     0.75800
O289        O  0.27773962  0.38830657  0.56413578    -0.58000
C290        C  0.25610539  0.35440240  0.46015772     0.75800
C291        C  0.23395700  0.37307320  0.54045703     0.78100
Cd292      Cd  0.25563760  0.36552599  0.55124107     1.37500
O293        O  0.24555866  0.34429037  0.60175734    -0.56800
O294        O  0.23156909  0.36060317  0.53908206    -0.55700
C295        C  0.28444859  0.38284200  0.58158985     0.78100
O296        O  0.24666860  0.38246566  0.54573330    -0.58000
O297        O  0.24939605  0.36361891  0.63239322    -0.56500
O298        O  0.26031816  0.36723565  0.46712979    -0.56500
O299        O  0.27818756  0.36960760  0.58220104    -0.55600
O300        O  0.41845973  0.42910538  0.78052766    -0.56800
C301        C  0.42079968  0.43905850  0.63709368     0.75800
O302        O  0.39150898  0.44516302  0.71386417    -0.58000
C303        C  0.41562966  0.43331738  0.81752679     0.75800
C304        C  0.43524792  0.47312708  0.73847920     0.78100
Cd305      Cd  0.41340951  0.44414593  0.72789773     1.37500
O306        O  0.42274178  0.43346154  0.67249617    -0.56800
O307        O  0.43767597  0.46315648  0.73302453    -0.55700
C308        C  0.38370777  0.43207386  0.70808628     0.78100
O309        O  0.42244386  0.46982961  0.73900204    -0.58000
O310        O  0.41568313  0.44691283  0.64405064    -0.56500
O311        O  0.41112512  0.44180329  0.81265918    -0.56500
O312        O  0.38944978  0.42477504  0.71552213    -0.55600
O313        O  0.98900848  0.56862386  0.29452993    -0.56800
C314        C  0.98275744  0.56492709  0.14838270     0.75800
O315        O  0.95365656  0.52923052  0.23362276    -0.58000
C316        C  0.98355219  0.55955039  0.32634881     0.75800
C317        C  0.95256252  0.56640927  0.25954220     0.78100
Cd318      Cd  0.97029753  0.55486952  0.23775424     1.37500
O319        O  0.99013035  0.56835412  0.18464607    -0.56800
O320        O  0.96573415  0.57383175  0.25695051    -0.55700
C321        C  0.96325918  0.52620063  0.22754580     0.78100
O322        O  0.94733653  0.55357205  0.24928470    -0.58000
O323        O  0.96965232  0.55748194  0.15399035    -0.56500
O324        O  0.97253096  0.54840802  0.31565012    -0.56500
O325        O  0.97567418  0.53635318  0.22535230    -0.55600
O326        O  0.89990014  0.65110420  0.46267248    -0.56800
C327        C  0.89935498  0.64649272  0.32006649     0.75800
O328        O  0.88817453  0.60901193  0.38999540    -0.58000
C329        C  0.89873470  0.64364849  0.49747966     0.75800
C330        C  0.85984600  0.62337142  0.40765944     0.78100
Cd331      Cd  0.88939431  0.63168189  0.40614421     1.37500
O332        O  0.90267327  0.65307883  0.35797419    -0.56800
O333        O  0.86946232  0.63547209  0.39646750    -0.55700
C334        C  0.90133583  0.61413334  0.38716851     0.78100
O335        O  0.86378023  0.61468872  0.41801668    -0.58000
O336        O  0.89140417  0.63337904  0.32228947    -0.56500
O337        O  0.89370361  0.63073828  0.48945041    -0.56500
O338        O  0.90874168  0.62702191  0.39650564    -0.55600
O339        O  0.08044964  0.76039785  0.02976546    -0.56800
C340        C  0.07989111  0.76721329  0.17077919     0.75800
O341        O  0.08721809  0.80273808  0.08292559    -0.58000
C342        C  0.08466406  0.76850733  0.99516804     0.75800
C343        C  0.04853453  0.76776658  0.05932990     0.78100
Cd344      Cd  0.07755952  0.77691586  0.08034619     1.37500
O345        O  0.08374802  0.76360077  0.13474164    -0.56800
O346        O  0.05310384  0.75935866  0.06410467    -0.55700
C347        C  0.09984135  0.80562795  0.08703101     0.78100
O348        O  0.05726243  0.78052158  0.06722224    -0.58000
O349        O  0.07433992  0.77474687  0.16473625    -0.56500
O350        O  0.08589790  0.78044916  0.00057944    -0.56500
O351        O  0.10190232  0.79532353  0.08804294    -0.55600
O352        O  0.91787167  0.67958824  0.96088476    -0.56800
C353        C  0.91935584  0.68692863  0.81793341     0.75800
O354        O  0.91012613  0.71279032  0.89970452    -0.58000
C355        C  0.91974984  0.68656427  0.99757953     0.75800
C356        C  0.95163588  0.72073820  0.92220183     0.78100
Cd357      Cd  0.92270224  0.69944197  0.90858866     1.37500
O358        O  0.91983994  0.68067702  0.85401041    -0.56800
O359        O  0.94798542  0.70826235  0.91135012    -0.55700
C360        C  0.89817613  0.70253986  0.90979176     0.78100
O361        O  0.94199542  0.72383742  0.92221094    -0.58000
O362        O  0.92110191  0.69907976  0.82364631    -0.56500
O363        O  0.92285689  0.69918542  0.99271343    -0.56500
O364        O  0.89775147  0.69114931  0.91961910    -0.55600
O365        O  0.09643080  0.74754793  0.52560796    -0.56800
C366        C  0.10258268  0.74711207  0.67113376     0.75800
O367        O  0.11338576  0.72157769  0.59081455    -0.58000
C368        C  0.10174169  0.74545829  0.48979024     0.75800
C369        C  0.13868909  0.76508899  0.58092218     0.78100
Cd370      Cd  0.11041072  0.74230818  0.58102203     1.37500
O371        O  0.09559137  0.74676697  0.63590019    -0.56800
O372        O  0.12820507  0.76683959  0.58370280    -0.55700
C373        C  0.10042362  0.71309170  0.59635637     0.78100
O374        O  0.13612373  0.75256011  0.57695219    -0.58000
O375        O  0.11309391  0.74568306  0.66365765    -0.56500
O376        O  0.11059324  0.74152028  0.49648813    -0.56500
O377        O  0.09230066  0.71797760  0.59079422    -0.55600
O378        O  0.01747690  0.57892527  0.78955769    -0.56800
C379        C  0.02368169  0.57694393  0.64993339     0.75800
O380        O  0.06070174  0.60631729  0.72477202    -0.58000
C381        C  0.02449225  0.58308084  0.82643243     0.75800
C382        C  0.04441747  0.56271836  0.74664702     0.78100
Cd383      Cd  0.03756025  0.58471765  0.73789913     1.37500
O384        O  0.01724208  0.57719462  0.68585418    -0.56800
O385        O  0.03208582  0.56051514  0.74193938    -0.55700
C386        C  0.05532365  0.61366736  0.71267720     0.78100
O387        O  0.05403726  0.57545361  0.74796128    -0.58000
O388        O  0.03629440  0.58006622  0.65531384    -0.56500
O389        O  0.03762658  0.58853789  0.82206452    -0.56500
O390        O  0.04218222  0.60799934  0.71663818    -0.55600
O391        O  0.91295190  0.23432751  0.84994693    -0.56800
C392        C  0.91148044  0.22696137  0.99083956     0.75800
O393        O  0.91018064  0.19457992  0.89392872    -0.58000
C394        C  0.91827395  0.23242052  0.81391366     0.75800
C395        C  0.94832166  0.23220547  0.92639658     0.78100
Cd396      Cd  0.91911052  0.22052074  0.90249453     1.37500
O397        O  0.91056544  0.23278225  0.95429011    -0.56800
O398        O  0.94224268  0.23936144  0.92557336    -0.55700
C399        C  0.89735766  0.19117942  0.89320507     0.78100
O400        O  0.94115194  0.21960303  0.91299346    -0.58000
O401        O  0.91558938  0.21818902  0.98575338    -0.56500
O402        O  0.92460325  0.22558105  0.81915601    -0.56500
O403        O  0.89494598  0.20123097  0.89553637    -0.55600
O404        O  0.08828930  0.31706619  0.00311216    -0.56800
C405        C  0.08159964  0.30630119  0.14493881     0.75800
O406        O  0.05702838  0.27395659  0.03488693    -0.58000
C407        C  0.08665465  0.31046069  0.96569611     0.75800
C408        C  0.10115768  0.28794390  0.05529918     0.78100
Cd409      Cd  0.07958966  0.29576021  0.05227977     1.37500
O410        O  0.08516486  0.31437505  0.11022350    -0.56800
O411        O  0.10370229  0.30037621  0.04957056    -0.55700
C412        C  0.04977440  0.27997959  0.03253345     0.78100
O413        O  0.08834030  0.27869486  0.05982463    -0.58000
O414        O  0.07686823  0.29343708  0.13677181    -0.56500
O415        O  0.08232156  0.29749096  0.96915501    -0.56500
O416        O  0.05620680  0.29290908  0.04175517    -0.55600
O417        O  0.90166738  0.25086743  0.45556134    -0.56800
C418        C  0.89320512  0.24856171  0.31529952     0.75800
O419        O  0.85988369  0.24378821  0.40930634    -0.58000
C420        C  0.89746041  0.25352883  0.49282779     0.75800
C421        C  0.89519753  0.28408419  0.38714403     0.78100
Cd422      Cd  0.88601358  0.25487145  0.40428881     1.37500
O423        O  0.89955728  0.24814589  0.35113459    -0.56800
O424        O  0.90361371  0.27960200  0.39384497    -0.55700
C425        C  0.85763902  0.23132589  0.41045006     0.78100
O426        O  0.88229009  0.27518037  0.39140616    -0.58000
O427        O  0.88403216  0.25208349  0.32126381    -0.56500
O428        O  0.88832919  0.25724783  0.48893820    -0.56500
O429        O  0.86844583  0.23010821  0.41059343    -0.55600
O430        O  0.98681574  0.41536694  0.18093046    -0.56800
C431        C  0.98256983  0.41557778  0.32246261     0.75800
O432        O  0.95315043  0.42223966  0.23101522    -0.58000
C433        C  0.97912907  0.41155080  0.14544657     0.75800
C434        C  0.94741840  0.38210392  0.25706304     0.78100
Cd435      Cd  0.96796385  0.41099359  0.23640941     1.37500
O436        O  0.98886278  0.41661026  0.28480157    -0.56800
O437        O  0.96023846  0.38617186  0.25050469    -0.55700
C438        C  0.96331582  0.43467494  0.23340659     0.78100
O439        O  0.94380012  0.39125343  0.25094814    -0.58000
O440        O  0.97010756  0.41312398  0.31964982    -0.56500
O441        O  0.96623072  0.40707624  0.15217041    -0.56500
O442        O  0.97533599  0.43595149  0.23639582    -0.55600
O443        O  0.09901690  0.34330942  0.50079217    -0.56800
C444        C  0.10652377  0.35139300  0.64283116     0.75800
O445        O  0.13817343  0.38104182  0.54034879    -0.58000
C446        C  0.10212234  0.35025116  0.46353381     0.75800
C447        C  0.09988683  0.38111829  0.57258432     0.78100
Cd448      Cd  0.11246863  0.36395281  0.55250329     1.37500
O449        O  0.10103184  0.34394456  0.60727919    -0.56800
O450        O  0.09276895  0.36791185  0.56989949    -0.55700
C451        C  0.14199526  0.37214439  0.54884123     0.78100
O452        O  0.11276197  0.38658301  0.56228778    -0.58000
O453        O  0.11473442  0.36431443  0.63611618    -0.56500
O454        O  0.10937733  0.36341472  0.46782702    -0.56500
O455        O  0.13229195  0.35983908  0.55748778    -0.55600
O456        O  0.01263567  0.42804310  0.78665793    -0.56800
C457        C  0.01915729  0.43128380  0.64735275     0.75800
O458        O  0.05017433  0.46623404  0.74355933    -0.58000
C459        C  0.01959107  0.43011509  0.82333491     0.75800
C460        C  0.05090171  0.42920324  0.71583271     0.78100
Cd461      Cd  0.03297371  0.44060705  0.73470877     1.37500
O462        O  0.01205660  0.42832864  0.68425111    -0.56800
O463        O  0.03803925  0.42142103  0.72505100    -0.55700
C464        C  0.04152209  0.47020998  0.73341421     0.78100
O465        O  0.05580151  0.44227212  0.72048415    -0.58000
O466        O  0.03228963  0.43855017  0.65128402    -0.56500
O467        O  0.03278448  0.43683361  0.81901888    -0.56500
O468        O  0.02919028  0.46057133  0.72504974    -0.55600
C469        C  0.09445407  0.40780587  0.64036946    -0.04500
C470        C  0.08042807  0.40362332  0.62993421     0.09700
C471        C  0.07305309  0.39269758  0.59817527    -0.01900
C472        C  0.07951318  0.38565273  0.57811045    -0.00100
C473        C  0.09351432  0.38955755  0.58939419    -0.03800
C474        C  0.10099640  0.40086757  0.62021482     0.03300
C475        C  0.07330813  0.41052872  0.65336936     0.10100
C476        C  0.05873291  0.38866064  0.58649786     0.36000
C477        C  0.11520866  0.40495571  0.63345737     0.39400
C478        C  0.07494424  0.42323853  0.63623540    -0.04100
C479        C  0.06798334  0.42955779  0.65761592     0.03000
C480        C  0.05944746  0.42330799  0.69691054    -0.03700
C481        C  0.05808231  0.41071997  0.71464747     0.00000
C482        C  0.06494227  0.40434408  0.69281848    -0.02500
C483        C  0.08361073  0.42968846  0.59593917     0.36700
C484        C  0.04979966  0.40440234  0.75578346     0.40400
C485        C  0.06896917  0.44206198  0.63728143     0.39500
C486        C  0.06335115  0.39133523  0.71072197     0.36400
C487        C  0.10202596  0.41906447  0.67298428     0.37100
C488        C  0.07171408  0.37446990  0.54547888     0.40300
N489        N  0.06966174  0.45198873  0.62106578    -0.37700
N490        N  0.09054450  0.43489185  0.56386342    -0.39300
N491        N  0.04322983  0.39934612  0.78866056    -0.37100
N492        N  0.06208410  0.38093668  0.72481043    -0.39400
N493        N  0.04731693  0.38549345  0.57731394    -0.39200
N494        N  0.06543937  0.36554305  0.51950205    -0.36800
N495        N  0.12654073  0.40823184  0.64418673    -0.37900
N496        N  0.10799749  0.42804608  0.69905030    -0.39600
C497        C  0.99783159  0.42749412  0.54016901    -0.04500
C498        C  0.00342410  0.42175327  0.50888345     0.09700
C499        C  0.01317592  0.41793750  0.52435727    -0.01900
C500        C  0.01771009  0.42031680  0.57053817    -0.00100
C501        C  0.01267805  0.42675203  0.60129397    -0.03800
C502        C  0.00240674  0.42994655  0.58634463     0.03300
C503        C  0.99892306  0.41965519  0.45959048     0.10100
C504        C  0.01865718  0.41172657  0.49247976     0.36000
C505        C  0.99693231  0.43624201  0.61793413     0.39400
C506        C  0.00659944  0.43016306  0.42653775    -0.04100
C507        C  0.00171507  0.42861607  0.38073966     0.03000
C508        C  0.98901516  0.41662731  0.36817697    -0.03700
C509        C  0.98183003  0.40576294  0.40069285     0.00000
C510        C  0.98679993  0.40726496  0.44618718    -0.02500
C511        C  0.01941093  0.44263344  0.44003781     0.36700
C512        C  0.96944782  0.39286792  0.38698984     0.40400
C513        C  0.00951532  0.43954228  0.34713512     0.39500
C514        C  0.97944705  0.39606762  0.47935676     0.36400
C515        C  0.98760130  0.43117934  0.52444670     0.37100
C516        C  0.02725402  0.41576710  0.58678561     0.40300
N517        N  0.01581864  0.44826149  0.32037862    -0.37700
N518        N  0.02964240  0.45253719  0.45104762    -0.39300
N519        N  0.95962624  0.38258425  0.37582683    -0.37100
N520        N  0.97362869  0.38710700  0.50577179    -0.39400
N521        N  0.02304301  0.40681132  0.46692306    -0.39200
N522        N  0.03474407  0.41200562  0.59986148    -0.36800
N523        N  0.99255565  0.44122550  0.64325894    -0.37900
N524        N  0.97945072  0.43413398  0.51187603    -0.39600
C525        C  0.00260158  0.42606112  0.03935041    -0.04500
C526        C  0.99535318  0.41526552  0.00704501     0.09700
C527        C  0.98307602  0.40297461  0.02063304    -0.01900
C528        C  0.97791039  0.40160244  0.06609073    -0.00100
C529        C  0.98496273  0.41257787  0.09826068    -0.03800
C530        C  0.99740741  0.42479220  0.08461340     0.03300
C531        C  0.00043741  0.41733375  0.95815663     0.10100
C532        C  0.97574791  0.39177322  0.98768246     0.36000
C533        C  0.00452430  0.43643770  0.11622197     0.39400
C534        C  0.01172141  0.41536745  0.94589157    -0.04100
C535        C  0.01778851  0.41921976  0.90154913     0.03000
C536        C  0.01263707  0.42514960  0.86910769    -0.03700
C537        C  0.00095970  0.42660578  0.88104821     0.00000
C538        C  0.99481438  0.42256207  0.92518331    -0.02500
C539        C  0.01713930  0.40947015  0.97923373     0.36700
C540        C  0.99573039  0.43304874  0.84908117     0.40400
C541        C  0.02921142  0.41687396  0.88925127     0.39500
C542        C  0.98284673  0.42405876  0.93718022     0.36400
C543        C  0.01531490  0.43864673  0.02550843     0.37100
C544        C  0.96548685  0.38875462  0.07995276     0.40300
N545        N  0.03831401  0.41497944  0.87948771    -0.37700
N546        N  0.02142739  0.40474220  0.00588596    -0.39300
N547        N  0.99159488  0.43826084  0.82374941    -0.37100
N548        N  0.97323702  0.42514136  0.94675679    -0.39400
N549        N  0.96988558  0.38283238  0.96139211    -0.39200
N550        N  0.95559321  0.37850648  0.09114231    -0.36800
N551        N  0.01019335  0.44578155  0.14123191    -0.37900
N552        N  0.02546897  0.44862638  0.01424080    -0.39600
C553        C  0.93087246  0.34274193  0.27811335    -0.04500
C554        C  0.92103108  0.34048776  0.31297876     0.09700
C555        C  0.91908169  0.35163235  0.32701970    -0.01900
C556        C  0.92716271  0.36507273  0.30712063    -0.00100
C557        C  0.93744227  0.36752951  0.27322940    -0.03800
C558        C  0.93899955  0.35614827  0.25820082     0.03300
C559        C  0.91318184  0.32643716  0.33604592     0.10100
C560        C  0.90907577  0.34933541  0.36323725     0.36000
C561        C  0.94887855  0.35812443  0.22185636     0.39400
C562        C  0.91883919  0.32357772  0.37538892    -0.04100
C563        C  0.91253206  0.30987756  0.39365087     0.03000
C564        C  0.90040451  0.29890006  0.37291110    -0.03700
C565        C  0.89424099  0.30200710  0.33521376     0.00000
C566        C  0.90063948  0.31572922  0.31688624    -0.02500
C567        C  0.93137219  0.33473381  0.39644570     0.36700
C568        C  0.88184824  0.29095397  0.31314959     0.40400
C569        C  0.91861304  0.30708426  0.43373521     0.39500
C570        C  0.89457570  0.31879059  0.27735557     0.36400
C571        C  0.93288732  0.33127117  0.26364259     0.37100
C572        C  0.92531325  0.37647319  0.32348911     0.40300
N573        N  0.92347571  0.30483539  0.46563522    -0.37700
N574        N  0.94134372  0.34366781  0.41326251    -0.39300
N575        N  0.87198503  0.28215430  0.29538267    -0.37100
N576        N  0.88975452  0.32126660  0.24583602    -0.39400
N577        N  0.90114314  0.34749051  0.39233125    -0.39200
N578        N  0.92380189  0.38554547  0.33658680    -0.36800
N579        N  0.95674818  0.35967050  0.19286758    -0.37900
N580        N  0.93449210  0.32210402  0.25233391    -0.39600
C581        C  0.08265336  0.31636328  0.83867673    -0.04500
C582        C  0.09534061  0.32877652  0.82938487     0.09700
C583        C  0.10488829  0.33566572  0.86562362    -0.01900
C584        C  0.10185392  0.33004575  0.91072180    -0.00100
C585        C  0.08940887  0.31728436  0.91960052    -0.03800
C586        C  0.07972228  0.31059833  0.88342453     0.03300
C587        C  0.09844689  0.33469445  0.78144756     0.10100
C588        C  0.11795333  0.34843262  0.85626199     0.36000
C589        C  0.06648328  0.29795412  0.89238800     0.39400
C590        C  0.09739204  0.34662499  0.77076104    -0.04100
C591        C  0.10015923  0.35214364  0.72562599     0.03000
C592        C  0.10352692  0.34546431  0.69028304    -0.03700
C593        C  0.10436811  0.33338487  0.70086439     0.00000
C594        C  0.10198004  0.32811272  0.74636535    -0.02500
C595        C  0.09310089  0.35301005  0.80612436     0.36700
C596        C  0.10818549  0.32665003  0.66533512     0.40400
C597        C  0.09917982  0.36452765  0.71546755     0.39500
C598        C  0.10316855  0.31589566  0.75719532     0.36400
C599        C  0.07255238  0.30955235  0.80203475     0.37100
C600        C  0.11174033  0.33722119  0.94758342     0.40300
N601        N  0.09845040  0.37443644  0.70750754    -0.37700
N602        N  0.08963271  0.35803439  0.83442191    -0.39300
N603        N  0.11124312  0.32129196  0.63697218    -0.37100
N604        N  0.10405195  0.30611225  0.76582803    -0.39400
N605        N  0.12836461  0.35863112  0.84877590    -0.39200
N606        N  0.11959763  0.34299340  0.97703495    -0.36800
N607        N  0.05592444  0.28787706  0.89947547    -0.37900
N608        N  0.06454099  0.30412741  0.77270022    -0.39600
C609        C  0.07912426  0.32537158  0.25116709    -0.04500
C610        C  0.08719260  0.32281994  0.28336647     0.09700
C611        C  0.09295402  0.31438992  0.27050127    -0.01900
C612        C  0.09083431  0.30871929  0.22565534    -0.00100
C613        C  0.08314040  0.31164943  0.19292528    -0.03800
C614        C  0.07719255  0.31990221  0.20602809     0.03300
C615        C  0.09064471  0.32996102  0.32950239     0.10100
C616        C  0.10146184  0.31193308  0.30310205     0.36000
C617        C  0.06892537  0.32262187  0.17318194     0.39400
C618        C  0.08131773  0.32426468  0.36708529    -0.04100
C619        C  0.08484823  0.33099188  0.41054931     0.03000
C620        C  0.09791537  0.34337598  0.41711929    -0.03700
C621        C  0.10720706  0.34902255  0.37905857     0.00000
C622        C  0.10349824  0.34243648  0.33556797    -0.02500
C623        C  0.06811216  0.31140203  0.36098075     0.36700
C624        C  0.12092189  0.36130168  0.38470025     0.40400
C625        C  0.07479880  0.32533382  0.44800074     0.39500
C626        C  0.11299502  0.34844190  0.29674200     0.36400
C627        C  0.07304530  0.33387687  0.26431062     0.37100
C628        C  0.09717439  0.30042782  0.21253734     0.40300
N629        N  0.06673220  0.32083187  0.47776131    -0.37700
N630        N  0.05758448  0.30112332  0.35608431    -0.39300
N631        N  0.13189750  0.37106570  0.38901081    -0.37100
N632        N  0.12050095  0.35316661  0.26560934    -0.39400
N633        N  0.10833255  0.31006509  0.32902811    -0.39200
N634        N  0.10225050  0.29384254  0.20197086    -0.36800
N635        N  0.06233783  0.32476638  0.14685819    -0.37900
N636        N  0.06817129  0.34064403  0.27486320    -0.39600
C637        C  0.98692896  0.24255518  0.93591069    -0.04500
C638        C  0.99094868  0.25078156  0.97626334     0.09700
C639        C  0.98086821  0.25247293  0.00099965    -0.01900
C640        C  0.96698262  0.24638995  0.98470809    -0.00100
C641        C  0.96296133  0.23832382  0.94374611    -0.03800
C642        C  0.97298746  0.23628493  0.91981600     0.03300
C643        C  0.00597728  0.25824654  0.99148352     0.10100
C644        C  0.98480927  0.26044762  0.04347497     0.36000
C645        C  0.96916069  0.22825290  0.87750606     0.39400
C646        C  0.01471217  0.27250822  0.98053738    -0.04100
C647        C  0.02890920  0.27961410  0.99411149     0.03000
C648        C  0.03460999  0.27247322  0.01887837    -0.03700
C649        C  0.02572269  0.25813601  0.02991094     0.00000
C650        C  0.01150604  0.25110671  0.01632205    -0.02500
C651        C  0.00905620  0.27982113  0.95454696     0.36700
C652        C  0.03101442  0.25060824  0.05639705     0.40400
C653        C  0.03763823  0.29419161  0.98097169     0.39500
C654        C  0.00247703  0.23648087  0.02807818     0.36400
C655        C  0.99726815  0.24076710  0.91054644     0.37100
C656        C  0.95677243  0.24822779  0.01086234     0.40300
N657        N  0.04449870  0.30581349  0.97031955    -0.37700
N658        N  0.00448169  0.28558721  0.93382888    -0.39300
N659        N  0.03522030  0.24458183  0.07752768    -0.37100
N660        N  0.99525865  0.22480396  0.03737397    -0.39400
N661        N  0.98793109  0.26676513  0.07744512    -0.39200
N662        N  0.94864056  0.24971695  0.03164511    -0.36800
N663        N  0.96613416  0.22186751  0.84367886    -0.37900
N664        N  0.00556696  0.23936279  0.89051666    -0.39600
C665        C  0.91231167  0.24640373  0.20816380    -0.04500
C666        C  0.90110678  0.23968620  0.17683331     0.09700
C667        C  0.88736485  0.23546421  0.19149394    -0.01900
C668        C  0.88478729  0.23780978  0.23724831    -0.00100
C669        C  0.89603616  0.24501385  0.26841849    -0.03800
C670        C  0.90983081  0.24919193  0.25368756     0.03300
C671        C  0.90363559  0.23650929  0.12873650     0.10100
C672        C  0.87583970  0.22872502  0.15924789     0.36000
C673        C  0.92155415  0.25668392  0.28471205     0.39400
C674        C  0.90029680  0.22277930  0.11710424    -0.04100
C675        C  0.90224702  0.21956455  0.07166502     0.03000
C676        C  0.90813794  0.23021397  0.03758673    -0.03700
C677        C  0.91148273  0.24401976  0.04946485     0.00000
C678        C  0.90905252  0.24707726  0.09470397    -0.02500
C679        C  0.89497136  0.21195771  0.15229359     0.36700
C680        C  0.91796754  0.25526946  0.01597592     0.40400
C681        C  0.89778491  0.20514018  0.05997367     0.39500
C682        C  0.91217454  0.26113142  0.10649889     0.36400
C683        C  0.92640180  0.25041567  0.19339271     0.37100
C684        C  0.87042685  0.23223471  0.25262872     0.40300
N685        N  0.89418119  0.19362659  0.05067622    -0.37700
N686        N  0.89076538  0.20337177  0.18048790    -0.39300
N687        N  0.92319954  0.26430748  0.98948163    -0.37100
N688        N  0.91464267  0.27232047  0.11611780    -0.39400
N689        N  0.86664927  0.22337812  0.13352016    -0.39200
N690        N  0.85899477  0.22772375  0.26511319    -0.36800
N691        N  0.93094785  0.26266604  0.30932715    -0.37900
N692        N  0.93762365  0.25359514  0.18144309    -0.39600
C693        C  0.90908265  0.25985579  0.61883428    -0.04500
C694        C  0.91012137  0.24787455  0.62887374     0.09700
C695        C  0.90788493  0.23821700  0.59345452    -0.01900
C696        C  0.90424426  0.24029815  0.54863932    -0.00100
C697        C  0.90264124  0.25202567  0.53888611    -0.03800
C698        C  0.90532294  0.26191317  0.57416773     0.03300
C699        C  0.91264201  0.24489141  0.67740747     0.10100
C700        C  0.90885073  0.22583631  0.60367542     0.36000
C701        C  0.90440770  0.27434732  0.56448663     0.39400
C702        C  0.90152717  0.23935515  0.70951741    -0.04100
C703        C  0.90348172  0.23562543  0.75431025     0.03000
C704        C  0.91662863  0.23739213  0.76761957    -0.03700
C705        C  0.92786281  0.24325795  0.73566373     0.00000
C706        C  0.92586690  0.24701397  0.69082933    -0.02500
C707        C  0.88791071  0.23715182  0.69594201     0.36700
C708        C  0.94156837  0.24567642  0.74900914     0.40400
C709        C  0.89166150  0.22924219  0.78576065     0.39500
C710        C  0.93740329  0.25302976  0.65827426     0.36400
C711        C  0.91170861  0.26998289  0.65482658     0.37100
C712        C  0.90144213  0.22991563  0.51335564     0.40300
N713        N  0.88222526  0.22411218  0.81079301    -0.37700
N714        N  0.87706960  0.23543453  0.68507725    -0.39300
N715        N  0.95252062  0.24763089  0.75956388    -0.37100
N716        N  0.94658386  0.25781887  0.63219797    -0.39400
N717        N  0.90962395  0.21597158  0.61196420    -0.39200
N718        N  0.89920714  0.22161072  0.48529648    -0.36800
N719        N  0.90366714  0.28425956  0.55673234    -0.37900
N720        N  0.91377381  0.27804109  0.68359886    -0.39600
C721        C  0.03843279  0.52612463  0.76912255    -0.04500
C722        C  0.04916778  0.52616271  0.74254096     0.09700
C723        C  0.05934793  0.53869793  0.72152086    -0.01900
C724        C  0.05837157  0.55098560  0.72498756    -0.00100
C725        C  0.04711162  0.55074528  0.74938342    -0.03800
C726        C  0.03748880  0.53837070  0.77300270     0.03300
C727        C  0.04922914  0.51272523  0.73551953     0.10100
C728        C  0.07056784  0.53878717  0.69514881     0.36000
C729        C  0.02667735  0.53823941  0.80199861     0.39400
C730        C  0.04096924  0.50347197  0.70043500    -0.04100
C731        C  0.03892552  0.48978438  0.69859513     0.03000
C732        C  0.04533026  0.48527360  0.73158890    -0.03700
C733        C  0.05469635  0.49507716  0.76399526     0.00000
C734        C  0.05649018  0.50869603  0.76619950    -0.02500
C735        C  0.03444483  0.50804868  0.66647111     0.36700
C736        C  0.06209371  0.49109155  0.79640263     0.40400
C737        C  0.03031526  0.48042641  0.66223553     0.39500
C738        C  0.06553537  0.51851503  0.80078645     0.36400
C739        C  0.02811378  0.51331206  0.79160806     0.37100
C740        C  0.06862432  0.56364067  0.70169734     0.40300
N741        N  0.02344536  0.47297268  0.63324099    -0.37700
N742        N  0.02934019  0.51175599  0.63921361    -0.39300
N743        N  0.06809848  0.48800004  0.82216950    -0.37100
N744        N  0.07276339  0.52641237  0.82823635    -0.39400
N745        N  0.07951185  0.53882603  0.67411268    -0.39200
N746        N  0.07685032  0.57374326  0.68321046    -0.36800
N747        N  0.01809830  0.53815579  0.82525729    -0.37900
N748        N  0.01986698  0.50307076  0.80935971    -0.39600
C749        C  0.06592530  0.64506881  0.63412349    -0.04500
C750        C  0.07816736  0.65541433  0.65566244     0.09700
C751        C  0.08362803  0.65184921  0.69399454    -0.01900
C752        C  0.07636365  0.63816153  0.71259189    -0.00100
C753        C  0.06367347  0.62793770  0.69243494    -0.03800
C754        C  0.05874246  0.63138013  0.65219537     0.03300
C755        C  0.08437348  0.67034792  0.64084938     0.10100
C756        C  0.09662485  0.66238419  0.71457068     0.36000
C757        C  0.04639353  0.62077994  0.62855943     0.39400
C758        C  0.07943184  0.67869180  0.66102111    -0.04100
C759        C  0.08468852  0.69261385  0.64637712     0.03000
C760        C  0.09493241  0.69832599  0.61105761    -0.03700
C761        C  0.09993670  0.68995805  0.59102023     0.00000
C762        C  0.09460528  0.67597356  0.60578044    -0.02500
C763        C  0.06879844  0.67284916  0.69678808     0.36700
C764        C  0.11021069  0.69554867  0.55420289     0.40400
C765        C  0.07980997  0.70115497  0.66893393     0.39500
C766        C  0.09944647  0.66726472  0.58446968     0.36400
C767        C  0.06062170  0.64861524  0.59359910     0.37100
C768        C  0.08160346  0.63486043  0.75370890     0.40300
N769        N  0.07591533  0.70794982  0.68693875    -0.37700
N770        N  0.06030225  0.66814863  0.72522244    -0.39300
N771        N  0.11840208  0.70001343  0.52479188    -0.37100
N772        N  0.10327082  0.66028651  0.56739528    -0.39400
N773        N  0.10705192  0.67081656  0.73063295    -0.39200
N774        N  0.08579831  0.63228731  0.78664278    -0.36800
N775        N  0.03658777  0.61236450  0.60946756    -0.37900
N776        N  0.05642786  0.65145540  0.56122993    -0.39600
C777        C  0.99110859  0.73735356  0.93742380    -0.04500
C778        C  0.99340956  0.74575085  0.97667043     0.09700
C779        C  0.98238888  0.74735995  0.99440514    -0.01900
C780        C  0.96884724  0.73980693  0.97509136    -0.00100
C781        C  0.96629562  0.73075294  0.93708018    -0.03800
C782        C  0.97768600  0.73004530  0.91731305     0.03300
C783        C  0.00718342  0.75201314  0.00126721     0.10100
C784        C  0.98491460  0.75640120  0.03378546     0.36000
C785        C  0.97564131  0.72175306  0.87625432     0.39400
C786        C  0.01786732  0.76578370  0.99151600    -0.04100
C787        C  0.03110580  0.77129307  0.01278222     0.03000
C788        C  0.03392742  0.76285854  0.04297953    -0.03700
C789        C  0.02295804  0.74916693  0.05377211     0.00000
C790        C  0.00965550  0.74386045  0.03328524    -0.02500
C791        C  0.01537661  0.77409056  0.95811316     0.36700
C792        C  0.02523734  0.74043130  0.08602891     0.40400
C793        C  0.04195417  0.78544573  0.00159781     0.39500
C794        C  0.99849468  0.72983246  0.04438216     0.36400
C795        C  0.00251233  0.73587279  0.91872413     0.37100
C796        C  0.95742754  0.74065972  0.99673524     0.40300
N797        N  0.05058425  0.79675811  0.99280637    -0.37700
N798        N  0.01343713  0.78069842  0.93123436    -0.39300
N799        N  0.02700006  0.73338326  0.11156023    -0.37100
N800        N  0.98955276  0.71865858  0.05308133    -0.39400
N801        N  0.98698135  0.76365747  0.06511190    -0.39200
N802        N  0.94834573  0.74132179  0.01431690    -0.36800
N803        N  0.97402745  0.71516431  0.84344652    -0.37900
N804        N  0.01161744  0.73465869  0.90407479    -0.39600
C805        C  0.08011846  0.74815089  0.88454479    -0.04500
C806        C  0.09220314  0.75760727  0.85971490     0.09700
C807        C  0.10230715  0.77014380  0.88069594    -0.01900
C808        C  0.10004011  0.77353031  0.92553752    -0.00100
C809        C  0.08772495  0.76427329  0.95000454    -0.03800
C810        C  0.07792822  0.75139785  0.92971479     0.03300
C811        C  0.09424763  0.75442995  0.81114027     0.10100
C812        C  0.11505038  0.77954758  0.85598581     0.36000
C813        C  0.06527637  0.74173221  0.95438144     0.39400
C814        C  0.09090940  0.76050680  0.77401283    -0.04100
C815        C  0.09322069  0.75786786  0.72814241     0.03000
C816        C  0.09889627  0.74906871  0.71906935    -0.03700
C817        C  0.10165037  0.74251762  0.75661332     0.00000
C818        C  0.09951616  0.74536127  0.80233070    -0.02500
C819        C  0.08520660  0.76961346  0.78325156     0.36700
C820        C  0.10625887  0.73244738  0.74852745     0.40400
C821        C  0.09007810  0.76455730  0.69063092     0.39500
C822        C  0.10288821  0.73907066  0.84056336     0.36400
C823        C  0.06979632  0.73520596  0.86305974     0.37100
C824        C  0.11053058  0.78644473  0.94680906     0.40300
N825        N  0.08750272  0.76988093  0.66081156    -0.37700
N826        N  0.08067724  0.77688347  0.79081605    -0.39300
N827        N  0.10986924  0.72436708  0.74216594    -0.37100
N828        N  0.10558470  0.73408308  0.87111343    -0.39400
N829        N  0.12522497  0.78701545  0.83625192    -0.39200
N830        N  0.11889024  0.79673172  0.96384472    -0.36800
N831        N  0.05519057  0.73400089  0.97404808    -0.37900
N832        N  0.06159042  0.72489239  0.84577498    -0.39600
C833        C  0.08072858  0.74618254  0.38603028    -0.04500
C834        C  0.09129193  0.75259197  0.35228533     0.09700
C835        C  0.10519940  0.75642310  0.36328385    -0.01900
C836        C  0.10861634  0.75415246  0.40812479    -0.00100
C837        C  0.09804829  0.74773320  0.44228083    -0.03800
C838        C  0.08404702  0.74366208  0.43074254     0.03300
C839        C  0.08794111  0.75610632  0.30585186     0.10100
C840        C  0.11604194  0.76294565  0.32842738     0.36000
C841        C  0.07294652  0.73658969  0.46441530     0.39400
C842        C  0.08980367  0.76954584  0.29773673    -0.04100
C843        C  0.08695496  0.77310216  0.25394461     0.03000
C844        C  0.08216420  0.76318334  0.21770903    -0.03700
C845        C  0.08016159  0.74964304  0.22617212     0.00000
C846        C  0.08312147  0.74616608  0.27000696    -0.02500
C847        C  0.09492236  0.77981180  0.33450734     0.36700
C848        C  0.07470158  0.73912666  0.19020523     0.40400
C849        C  0.08955082  0.78720323  0.24595925     0.39500
C850        C  0.08138833  0.73240612  0.27816697     0.36400
C851        C  0.06644916  0.74236428  0.37472114     0.37100
C852        C  0.12316645  0.75911590  0.41947954     0.40300
N853        N  0.09164702  0.79846319  0.23972431    -0.37700
N854        N  0.09905570  0.78796807  0.36391734    -0.39300
N855        N  0.07030784  0.73073803  0.16151292    -0.37100
N856        N  0.08004344  0.72143611  0.28458452    -0.39400
N857        N  0.12465410  0.76813999  0.30052036    -0.39200
N858        N  0.13478736  0.76315703  0.42848212    -0.36800
N859        N  0.06405695  0.73091807  0.49117188    -0.37900
N860        N  0.05507975  0.73936815  0.36554150    -0.39600
C861        C  0.91550197  0.66996723  0.59627963    -0.04500
C862        C  0.90852005  0.66166382  0.63501389     0.09700
C863        C  0.89895695  0.64729066  0.62916330    -0.01900
C864        C  0.89607980  0.64127450  0.58470052    -0.00100
C865        C  0.90268132  0.64967642  0.54518547    -0.03800
C866        C  0.91270255  0.66404102  0.55169167     0.03300
C867        C  0.91127261  0.66807500  0.68219497     0.10100
C868        C  0.89193358  0.63871627  0.66918397     0.36000
C869        C  0.92057563  0.67274935  0.51290029     0.39400
C870        C  0.90381306  0.67458632  0.69792908    -0.04100
C871        C  0.90646895  0.68073466  0.74213749     0.03000
C872        C  0.91655352  0.68031606  0.77133635    -0.03700
C873        C  0.92379728  0.67350726  0.75576072     0.00000
C874        C  0.92124720  0.66753713  0.71123822    -0.02500
C875        C  0.89323191  0.67476124  0.66870484     0.36700
C876        C  0.93413151  0.67290406  0.78500890     0.40400
C877        C  0.89831669  0.68693403  0.75820177     0.39500
C878        C  0.92894766  0.66088817  0.69493549     0.36400
C879        C  0.92564016  0.68467964  0.60250983     0.37100
C880        C  0.88609817  0.62644591  0.58020935     0.40300
N881        N  0.89171202  0.69178111  0.77087395    -0.37700
N882        N  0.88476396  0.67485076  0.64541464    -0.39300
N883        N  0.94236258  0.67237120  0.80831508    -0.37100
N884        N  0.93505674  0.65557694  0.68162059    -0.39400
N885        N  0.88635680  0.63191067  0.70117771    -0.39200
N886        N  0.87819993  0.61459114  0.57692522    -0.36800
N887        N  0.92692123  0.67971342  0.48207143    -0.37900
N888        N  0.93372421  0.69641112  0.60759461    -0.39600
C889        C  0.91467262  0.65486144  0.19900290    -0.04500
C890        C  0.91101691  0.66484584  0.18461569     0.09700
C891        C  0.90451841  0.66960678  0.21600375    -0.01900
C892        C  0.90134948  0.66413746  0.26121130    -0.00100
C893        C  0.90432414  0.65359584  0.27485280    -0.03800
C894        C  0.91121256  0.64913702  0.24382486     0.03300
C895        C  0.91365188  0.67007282  0.13591508     0.10100
C896        C  0.90078452  0.67989231  0.20128066     0.36000
C897        C  0.91495355  0.63881586  0.25829288     0.39400
C898        C  0.90352895  0.66274619  0.10165682    -0.04100
C899        C  0.90576606  0.66782420  0.05596062     0.03000
C900        C  0.91810253  0.68036511  0.04429804    -0.03700
C901        C  0.92838767  0.68753016  0.07849246     0.00000
C902        C  0.92613765  0.68239795  0.12414728    -0.02500
C903        C  0.89061052  0.65016648  0.11385541     0.36700
C904        C  0.94144030  0.70002863  0.06656171     0.40400
C905        C  0.89505931  0.66047492  0.02145228     0.39500
C906        C  0.93656867  0.68987102  0.15932610     0.36400
C907        C  0.92194484  0.65045814  0.16747160     0.37100
C908        C  0.89452871  0.66896339  0.29309798     0.40300
N909        N  0.88654882  0.65465752  0.99379121    -0.37700
N910        N  0.88028149  0.64016248  0.12367555    -0.39300
N911        N  0.95188805  0.70995720  0.05711167    -0.37100
N912        N  0.94484067  0.69581245  0.18755106    -0.39400
N913        N  0.89777089  0.68806636  0.18940813    -0.39200
N914        N  0.88913046  0.67282197  0.31869582    -0.36800
N915        N  0.91796755  0.63061509  0.26989090    -0.37900
N916        N  0.92780623  0.64701645  0.14230114    -0.39600
C917        C  0.95084347  0.48807756  0.25739201    -0.04500
C918        C  0.95849520  0.48493992  0.22525221     0.09700
C919        C  0.96664741  0.49489051  0.19138604    -0.01900
C920        C  0.96754909  0.50810299  0.19057100    -0.00100
C921        C  0.96044834  0.51155866  0.22414092    -0.03800
C922        C  0.95188030  0.50138437  0.25710867     0.03300
C923        C  0.95900657  0.47165662  0.22931530     0.10100
C924        C  0.97453578  0.49167833  0.15839013     0.36000
C925        C  0.94495638  0.50490711  0.29286034     0.39400
C926        C  0.94979166  0.45971618  0.20373320    -0.04100
C927        C  0.95108688  0.44758586  0.20503682     0.03000
C928        C  0.96143257  0.44720463  0.23299875    -0.03700
C929        C  0.97037233  0.45913078  0.25972460     0.00000
C930        C  0.96929357  0.47133528  0.25721779    -0.02500
C931        C  0.93916272  0.46007342  0.17532309     0.36700
C932        C  0.98057481  0.45886634  0.29066550     0.40400
C933        C  0.94224116  0.43584091  0.17559968     0.39500
C934        C  0.97900908  0.48375974  0.28261050     0.36400
C935        C  0.94231319  0.47775422  0.29179682     0.37100
C936        C  0.97590250  0.51819057  0.15524177     0.40300
N937        N  0.93522544  0.42653296  0.15180555    -0.37700
N938        N  0.93068312  0.46039963  0.15276006    -0.39300
N939        N  0.98870303  0.45867592  0.31541069    -0.37100
N940        N  0.98679334  0.49372148  0.30252688    -0.39400
N941        N  0.98086479  0.48910666  0.13225506    -0.39200
N942        N  0.98256891  0.52625326  0.12713943    -0.36800
N943        N  0.93951925  0.50775261  0.32158436    -0.37900
N944        N  0.93550468  0.46950176  0.31921890    -0.39600
C945        C  0.93948394  0.59217217  0.27954584    -0.04500
C946        C  0.92921168  0.58515938  0.31381060     0.09700
C947        C  0.92617056  0.57174810  0.32873449    -0.01900
C948        C  0.93343788  0.56539719  0.30980431    -0.00100
C949        C  0.94389811  0.57247446  0.27586930    -0.03800
C950        C  0.94684322  0.58590082  0.26074172     0.03300
C951        C  0.92169037  0.59201119  0.33457414     0.10100
C952        C  0.91580763  0.56466438  0.36461745     0.36000
C953        C  0.95735899  0.59326292  0.22547534     0.39400
C954        C  0.90833782  0.58867607  0.31838100    -0.04100
C955        C  0.90146457  0.59553559  0.33651980     0.03000
C956        C  0.90787532  0.60577046  0.37152825    -0.03700
C957        C  0.92117916  0.60882504  0.38839172     0.00000
C958        C  0.92806132  0.60204225  0.36972586    -0.02500
C959        C  0.90187650  0.57845206  0.28186491     0.36700
C960        C  0.92784220  0.61887175  0.42527149     0.40400
C961        C  0.88815534  0.59255407  0.31695935     0.39500
C962        C  0.94186574  0.60555120  0.38607786     0.36400
C963        C  0.94254658  0.60593817  0.26402744     0.37100
C964        C  0.93066555  0.55190962  0.32729699     0.40300
N965        N  0.87756552  0.59017312  0.30111013    -0.37700
N966        N  0.89676873  0.57030078  0.25271006    -0.39300
N967        N  0.93320927  0.62689134  0.45463720    -0.37100
N968        N  0.95291375  0.60838941  0.39881467    -0.39400
N969        N  0.90756045  0.55904506  0.39332773    -0.39200
N970        N  0.92849574  0.54117149  0.34131064    -0.36800
N971        N  0.96576246  0.59916730  0.19741812    -0.37900
N972        N  0.94496970  0.61693112  0.25188148    -0.39600
C973        C  0.98618967  0.55605584  0.45664409    -0.04500
C974        C  0.00036299  0.56583889  0.46486383     0.09700
C975        C  0.00913666  0.57352820  0.42777704    -0.01900
C976        C  0.00382149  0.57132640  0.38244927    -0.00100
C977        C  0.98945961  0.56176133  0.37401702    -0.03800
C978        C  0.98063958  0.55429296  0.41186679     0.03300
C979        C  0.00597098  0.56827303  0.51296546     0.10100
C980        C  0.02365996  0.58384295  0.43648108     0.36000
C981        C  0.96567504  0.54517699  0.40574936     0.39400
C982        C  0.01448102  0.56278630  0.52735733    -0.04100
C983        C  0.02012681  0.56546446  0.57222035     0.03000
C984        C  0.01700188  0.57338711  0.60356842    -0.03700
C985        C  0.00795786  0.57836330  0.58953397     0.00000
C986        C  0.00266577  0.57599726  0.54420205    -0.02500
C987        C  0.01727398  0.55422187  0.49600653     0.36700
C988        C  0.00437670  0.58630480  0.62104042     0.40400
C989        C  0.02884430  0.55968912  0.58633574     0.39500
C990        C  0.99394647  0.58168795  0.52930004     0.36400
C991        C  0.97727865  0.54776513  0.49454364     0.37100
C992        C  0.01331450  0.57878992  0.34473668     0.40300
N993        N  0.03580825  0.55509808  0.59757619    -0.37700
N994        N  0.01945257  0.54735932  0.47099521    -0.39300
N995        N  0.00145383  0.59260847  0.64609047    -0.37100
N996        N  0.98697601  0.58618802  0.51725923    -0.39400
N997        N  0.03523256  0.59208261  0.44351339    -0.39200
N998        N  0.02093268  0.58475170  0.31475980    -0.36800
N999        N  0.95373327  0.53796221  0.40107934    -0.37900
N1000       N  0.97016883  0.54111872  0.52467589    -0.39600
C1001       C  0.01804439  0.58960181  0.95129686    -0.04500
C1002       C  0.00558832  0.57709233  0.96190707     0.09700
C1003       C  0.99892792  0.56687615  0.92740928    -0.01900
C1004       C  0.00485629  0.56899002  0.88286719    -0.00100
C1005       C  0.01767306  0.58131556  0.87251118    -0.03800
C1006       C  0.02416068  0.59165566  0.90709386     0.03300
C1007       C  0.99988512  0.57439596  0.01016548     0.10100
C1008       C  0.98610396  0.55399980  0.93818833     0.36000
C1009       C  0.03707290  0.60454128  0.89733698     0.39400
C1010       C  0.98797894  0.57545346  0.02127229    -0.04100
C1011       C  0.98254218  0.57266280  0.06658699     0.03000
C1012       C  0.98908595  0.56894876  0.10144218    -0.03700
C1013       C  0.00122607  0.56821972  0.09038007     0.00000
C1014       C  0.00645742  0.57074154  0.04485803    -0.02500
C1015       C  0.98129118  0.57937869  0.98591347     0.36700
C1016       C  0.00809973  0.56434237  0.12527460     0.40400
C1017       C  0.97036969  0.57393236  0.07744641     0.39500
C1018       C  0.01842267  0.56919002  0.03328408     0.36400
C1019       C  0.02455980  0.60037861  0.98616476     0.37100
C1020       C  0.99801328  0.55809063  0.84854972     0.40300
N1021       N  0.96065661  0.57492804  0.08619670    -0.37700
N1022       N  0.97591278  0.58246056  0.95769931    -0.39300
N1023       N  0.01362425  0.56130075  0.15309389    -0.37100
N1024       N  0.02793610  0.56791662  0.02395054    -0.39400
N1025       N  0.97585852  0.54375450  0.94682317    -0.39200
N1026       N  0.99251560  0.54937449  0.82127422    -0.36800
N1027       N  0.04740642  0.61481625  0.88979247    -0.37900
N1028       N  0.02969075  0.60894111  0.01410401    -0.39600
C1029       C  0.17997214  0.38540206  0.51174666    -0.04500
C1030       C  0.18424616  0.37889555  0.54487178     0.09700
C1031       C  0.17517616  0.37151872  0.58179456    -0.01900
C1032       C  0.16169346  0.37000788  0.58424635    -0.00100
C1033       C  0.15697565  0.37563724  0.54926448    -0.03800
C1034       C  0.16638650  0.38376325  0.51380653     0.03300
C1035       C  0.19785915  0.37892239  0.53956819     0.10100
C1036       C  0.17963613  0.36519666  0.61687292     0.36000
C1037       C  0.16195803  0.38997594  0.47831984     0.39400
C1038       C  0.20943800  0.38739266  0.56794709    -0.04100
C1039       C  0.22148187  0.38590477  0.56729650     0.03000
C1040       C  0.22222180  0.37619102  0.53714856    -0.03700
C1041       C  0.21098176  0.36845784  0.50644371     0.00000
C1042       C  0.19878326  0.36960357  0.50835540    -0.02500
C1043       C  0.20875790  0.39737668  0.59876863     0.36700
C1044       C  0.21197059  0.35935819  0.47239670     0.40400
C1045       C  0.23268625  0.39375553  0.59978124     0.39500
C1046       C  0.18689749  0.36073879  0.47941990     0.36400
C1047       C  0.18953786  0.39362899  0.47516983     0.37100
C1048       C  0.15276347  0.36286644  0.62350899     0.40300
N1049       N  0.24158064  0.39996601  0.62592209    -0.37700
N1050       N  0.20819005  0.40534641  0.62329938    -0.39300
N1051       N  0.21277645  0.35215424  0.44507118    -0.37100
N1052       N  0.17737278  0.35362881  0.45656221    -0.39400
N1053       N  0.18324624  0.36020807  0.64487320    -0.39200
N1054       N  0.14565146  0.35725294  0.65489690    -0.36800
N1055       N  0.15846485  0.39497929  0.45000474    -0.37900
N1056       N  0.19720749  0.40022059  0.44607292    -0.39600
C1057       C  0.32318417  0.41035477  0.59523358    -0.04500
C1058       C  0.32621359  0.40684288  0.63887870     0.09700
C1059       C  0.31538956  0.39587605  0.66443638    -0.01900
C1060       C  0.30178274  0.38809355  0.64579273    -0.00100
C1061       C  0.29877591  0.39137627  0.60154112    -0.03800
C1062       C  0.30952368  0.40269602  0.57668779     0.03300
C1063       C  0.34104504  0.41367865  0.65613136     0.10100
C1064       C  0.31834372  0.39255302  0.70995949     0.36000
C1065       C  0.30673227  0.40599698  0.53093954     0.39400
C1066       C  0.34669237  0.42584813  0.68352606    -0.04100
C1067       C  0.36049916  0.43181216  0.70102088     0.03000
C1068       C  0.36882134  0.42558384  0.69145976    -0.03700
C1069       C  0.36298005  0.41328740  0.66391145     0.00000
C1070       C  0.34928673  0.40752758  0.64611476    -0.02500
C1071       C  0.33823637  0.43221728  0.69370133     0.36700
C1072       C  0.37104524  0.40655705  0.65258131     0.40400
C1073       C  0.36588810  0.44412198  0.73001658     0.39500
C1074       C  0.34364035  0.39525571  0.61675824     0.36400
C1075       C  0.33424409  0.42168256  0.56900590     0.37100
C1076       C  0.29084110  0.37678663  0.67259955     0.40300
N1077       N  0.37015015  0.45394042  0.75318403    -0.37700
N1078       N  0.33149464  0.43731398  0.70175699    -0.39300
N1079       N  0.37738265  0.40109232  0.64353760    -0.37100
N1080       N  0.33911361  0.38552243  0.59313249    -0.39400
N1081       N  0.32073760  0.38998594  0.74634263    -0.39200
N1082       N  0.28213849  0.36775176  0.69397016    -0.36800
N1083       N  0.30447822  0.40855975  0.49435068    -0.37900
N1084       N  0.34307479  0.43073715  0.54809923    -0.39600
C1085       C  0.12509597  0.27406677  0.09539169    -0.04500
C1086       C  0.13669097  0.28138977  0.06574994     0.09700
C1087       C  0.13608802  0.28985583  0.03037291    -0.01900
C1088       C  0.12428056  0.29156170  0.02596911    -0.00100
C1089       C  0.11282056  0.28470439  0.05680520    -0.03800
C1090       C  0.11315120  0.27562361  0.09078621     0.03300
C1091       C  0.15004800  0.28114635  0.07308792     0.10100
C1092       C  0.14786525  0.29710936  0.99907939     0.36000
C1093       C  0.10154142  0.26840454  0.12258697     0.39400
C1094       C  0.15345648  0.27288638  0.04468774    -0.04100
C1095       C  0.16720755  0.27499480  0.04449823     0.03000
C1096       C  0.17757478  0.28524017  0.07345421    -0.03700
C1097       C  0.17372048  0.29249977  0.10505419     0.00000
C1098       C  0.16008000  0.29059802  0.10440968    -0.02500
C1099       C  0.14292020  0.26262785  0.01428084     0.36700
C1100       C  0.18382215  0.30198785  0.13826612     0.40400
C1101       C  0.17085703  0.26729903  0.01217110     0.39500
C1102       C  0.15653445  0.29886921  0.13449941     0.36400
C1103       C  0.12564629  0.26521150  0.13134510     0.37100
C1104       C  0.12397850  0.30037986  0.98931507     0.40300
N1105       N  0.17377082  0.26118737  0.98625468    -0.37700
N1106       N  0.13448920  0.25441739  0.99011609    -0.39300
N1107       N  0.19188794  0.30949463  0.16483661    -0.37100
N1108       N  0.15369372  0.30548296  0.15839048    -0.39400
N1109       N  0.15729384  0.30281454  0.97425295    -0.39200
N1110       N  0.12380530  0.30744865  0.96009651    -0.36800
N1111       N  0.09228325  0.26261804  0.14799983    -0.37900
N1112       N  0.12611836  0.25817310  0.16009185    -0.39600
C1113       C  0.24283234  0.33330902  0.85377930    -0.04500
C1114       C  0.23120641  0.32826969  0.82399051     0.09700
C1115       C  0.21772154  0.31884771  0.84098385    -0.01900
C1116       C  0.21588628  0.31431769  0.88730251    -0.00100
C1117       C  0.22762209  0.31877202  0.91671308    -0.03800
C1118       C  0.24110508  0.32848137  0.89973948     0.03300
C1119       C  0.23331825  0.33291624  0.77457482     0.10100
C1120       C  0.20574366  0.31361052  0.81048386     0.36000
C1121       C  0.25335166  0.33309691  0.92863582     0.39400
C1122       C  0.23899047  0.32737293  0.74288939    -0.04100
C1123       C  0.24258726  0.33290155  0.69778479     0.03000
C1124       C  0.24010974  0.34377460  0.68343512    -0.03700
C1125       C  0.23354786  0.34864948  0.71462340     0.00000
C1126       C  0.23039620  0.34339424  0.76008460    -0.02500
C1127       C  0.24134241  0.31609897  0.75721219     0.36700
C1128       C  0.22985554  0.35900010  0.70010690     0.40400
C1129       C  0.24954678  0.32785453  0.66734490     0.39500
C1130       C  0.22442576  0.34901180  0.79246363     0.36400
C1131       C  0.25664295  0.34338448  0.83670838     0.37100
C1132       C  0.20182664  0.30532242  0.90486815     0.40300
N1133       N  0.25515741  0.32383017  0.64332499    -0.37700
N1134       N  0.24316458  0.30708263  0.76880780    -0.39300
N1135       N  0.22688984  0.36724496  0.68858687    -0.37100
N1136       N  0.21966526  0.35347799  0.81831890    -0.39400
N1137       N  0.19617670  0.30939415  0.78620070    -0.39200
N1138       N  0.19062643  0.29820836  0.91905167    -0.36800
N1139       N  0.26316398  0.33679006  0.95148701    -0.37900
N1140       N  0.26762069  0.35141601  0.82280955    -0.39600
C1141       C  0.24790934  0.34723703  0.33156754    -0.04500
C1142       C  0.25093697  0.33641080  0.32336829     0.09700
C1143       C  0.25651647  0.33206135  0.35933338    -0.01900
C1144       C  0.25860252  0.33815871  0.40366035    -0.00100
C1145       C  0.25507248  0.34867175  0.41251875    -0.03800
C1146       C  0.24995657  0.35334174  0.37572132     0.03300
C1147       C  0.24744733  0.32915697  0.27736159     0.10100
C1148       C  0.26004562  0.32123779  0.35058442     0.36000
C1149       C  0.24614382  0.36401742  0.38344509     0.39400
C1150       C  0.25620242  0.33545542  0.23880292    -0.04100
C1151       C  0.25194866  0.32954943  0.19437494     0.03000
C1152       C  0.23897808  0.31703961  0.18822116    -0.03700
C1153       C  0.23056794  0.31038855  0.22753090     0.00000
C1154       C  0.23475999  0.31646473  0.27164962    -0.02500
C1155       C  0.26963842  0.34804407  0.24507772     0.36700
C1156       C  0.21720586  0.29758728  0.22268863     0.40400
C1157       C  0.26107106  0.33630311  0.15524719     0.39500
C1158       C  0.22581471  0.30981978  0.31126314     0.36400
C1159       C  0.24229873  0.35183634  0.29456596     0.37100
C1160       C  0.26474375  0.33384362  0.43970796     0.40300
N1161       N  0.26837600  0.34174452  0.12409422    -0.37700
N1162       N  0.28038704  0.35803653  0.25028756    -0.39300
N1163       N  0.20656549  0.28736958  0.21886542    -0.37100
N1164       N  0.21869725  0.30450731  0.34289850    -0.39400
N1165       N  0.26284046  0.31259474  0.34342903    -0.39200
N1166       N  0.26972018  0.33041995  0.46831706    -0.36800
N1167       N  0.24309860  0.37253519  0.38941522    -0.37900
N1168       N  0.23784841  0.35546752  0.26487721    -0.39600
C1169       C  0.25543158  0.26989425  0.95618492    -0.04500
C1170       C  0.25165392  0.25685377  0.97657854     0.09700
C1171       C  0.24184845  0.25180441  0.01303857    -0.01900
C1172       C  0.23596683  0.25981532  0.02941201    -0.00100
C1173       C  0.23979669  0.27295387  0.00921002    -0.03800
C1174       C  0.24946484  0.27785582  0.97204694     0.03300
C1175       C  0.25867229  0.24886788  0.96120876     0.10100
C1176       C  0.23801323  0.23843656  0.03423878     0.36000
C1177       C  0.25304729  0.29092777  0.94898830     0.39400
C1178       C  0.26961401  0.24937454  0.98775759    -0.04100
C1179       C  0.27684814  0.24259989  0.97235592     0.03000
C1180       C  0.27354418  0.23562778  0.92931277    -0.03700
C1181       C  0.26241638  0.23493924  0.90304492     0.00000
C1182       C  0.25489078  0.24137954  0.91929741    -0.02500
C1183       C  0.27360166  0.25713005  0.03069262     0.36700
C1184       C  0.25915049  0.22825727  0.85825186     0.40400
C1185       C  0.28748847  0.24254534  0.00162781     0.39500
C1186       C  0.24333091  0.24046236  0.89273425     0.36400
C1187       C  0.26570058  0.27523907  0.91925991     0.37100
C1188       C  0.22639322  0.25472280  0.06826308     0.40300
N1189       N  0.29590034  0.24244856  0.02518853    -0.37700
N1190       N  0.27674535  0.26333241  0.06488908    -0.39300
N1191       N  0.25658173  0.22302298  0.82233434    -0.37100
N1192       N  0.23408062  0.23973657  0.87170471    -0.39400
N1193       N  0.23502385  0.22780335  0.05127090    -0.39200
N1194       N  0.21877651  0.25066165  0.09931861    -0.36800
N1195       N  0.25589901  0.30133075  0.93049462    -0.37900
N1196       N  0.27389999  0.27947565  0.88985000    -0.39600
C1197       C  0.43303962  0.41553975  0.44505718    -0.04500
C1198       C  0.43382568  0.42857931  0.45187981     0.09700
C1199       C  0.43683377  0.43774343  0.41408548    -0.01900
C1200       C  0.43879997  0.43377846  0.36957713    -0.00100
C1201       C  0.43820186  0.42077435  0.36280745    -0.03800
C1202       C  0.43543343  0.41174079  0.40101862     0.03300
C1203       C  0.43090870  0.43228601  0.49878446     0.10100
C1204       C  0.43807235  0.45133422  0.42122889     0.36000
C1205       C  0.43476370  0.39834790  0.39517583     0.39400
C1206       C  0.44093718  0.43630389  0.53428719    -0.04100
C1207       C  0.43760856  0.43837012  0.57958477     0.03000
C1208       C  0.42428296  0.43664343  0.58960226    -0.03700
C1209       C  0.41442394  0.43308935  0.55359776     0.00000
C1210       C  0.41771446  0.43086028  0.50850484    -0.02500
C1211       C  0.45474455  0.43843863  0.52399387     0.36700
C1212       C  0.40068450  0.43127863  0.56303846     0.40400
C1213       C  0.44807631  0.44273981  0.61555761     0.39500
C1214       C  0.40743807  0.42688478  0.47203123     0.36400
C1215       C  0.42952498  0.40590221  0.48347441     0.37100
C1216       C  0.44191109  0.44331782  0.33113817     0.40300
N1217       N  0.45640886  0.44626295  0.64433567    -0.37700
N1218       N  0.46578327  0.44019305  0.51578927    -0.39300
N1219       N  0.38972058  0.42985153  0.57029396    -0.37100
N1220       N  0.39931317  0.42377424  0.44273825    -0.39400
N1221       N  0.43909359  0.46219287  0.42697803    -0.39200
N1222       N  0.44437401  0.45093070  0.30047872    -0.36800
N1223       N  0.43432733  0.38769934  0.39095164    -0.37900
N1224       N  0.42669484  0.39823662  0.51417170    -0.39600
C1225       C  0.41609015  0.41326974  0.03608203    -0.04500
C1226       C  0.42594223  0.41746931  0.99988935     0.09700
C1227       C  0.43919872  0.41893903  0.00848452    -0.01900
C1228       C  0.44265359  0.41634617  0.05294279    -0.00100
C1229       C  0.43289610  0.41239099  0.08978737    -0.03800
C1230       C  0.41956532  0.41089092  0.08087118     0.03300
C1231       C  0.42275149  0.42125689  0.95334497     0.10100
C1232       C  0.44944365  0.42349301  0.97156911     0.36000
C1233       C  0.40930459  0.40679765  0.11755748     0.39400
C1234       C  0.42600629  0.43513803  0.94437220    -0.04100
C1235       C  0.42367417  0.43902026  0.90024997     0.03000
C1236       C  0.41788786  0.42899257  0.86438287    -0.03700
C1237       C  0.41453712  0.41502196  0.87365088     0.00000
C1238       C  0.41695465  0.41120007  0.91791523    -0.02500
C1239       C  0.43193554  0.44549746  0.98072649     0.36700
C1240       C  0.40827659  0.40444807  0.83811308     0.40400
C1241       C  0.42786408  0.45355777  0.89147203     0.39500
C1242       C  0.41345935  0.39688729  0.92722642     0.36400
C1243       C  0.40235606  0.41148387  0.02713351     0.37100
C1244       C  0.45657727  0.41846531  0.06090281     0.40300
N1245       N  0.43124877  0.46516447  0.88452237    -0.37700
N1246       N  0.43664554  0.45371631  0.00985597    -0.39300
N1247       N  0.40326412  0.39597435  0.80984020    -0.37100
N1248       N  0.41066495  0.38547136  0.93483003    -0.39400
N1249       N  0.45761607  0.42717698  0.94210946    -0.39200
N1250       N  0.46768831  0.42017080  0.06715261    -0.36800
N1251       N  0.40112913  0.40361169  0.14685612    -0.37900
N1252       N  0.39138229  0.41001234  0.01990693    -0.39600
C1253       C  0.39756835  0.31086008  0.28700256    -0.04500
C1254       C  0.40961749  0.32064475  0.31094768     0.09700
C1255       C  0.41422474  0.31624051  0.34951313    -0.01900
C1256       C  0.40644246  0.30224362  0.36536118    -0.00100
C1257       C  0.39384437  0.29264011  0.34312794    -0.03800
C1258       C  0.38971081  0.29694234  0.30291929     0.03300
C1259       C  0.41679029  0.33577730  0.29708383     0.10100
C1260       C  0.42681650  0.32623991  0.37341467     0.36000
C1261       C  0.37753204  0.28696918  0.27700394     0.39400
C1262       C  0.41163172  0.34436882  0.31355125    -0.04100
C1263       C  0.41740354  0.35827947  0.29771572     0.03000
C1264       C  0.42872020  0.36391298  0.26597658    -0.03700
C1265       C  0.43406512  0.35532233  0.25025366     0.00000
C1266       C  0.42802625  0.34128073  0.26547691    -0.02500
C1267       C  0.40027836  0.33879952  0.34687551     0.36700
C1268       C  0.44535543  0.36067307  0.21679131     0.40400
C1269       C  0.41169473  0.36677307  0.31478392     0.39500
C1270       C  0.43316060  0.33235664  0.24797674     0.36400
C1271       C  0.39318692  0.31521771  0.24608390     0.37100
C1272       C  0.41118952  0.29791354  0.40539724     0.40300
N1273       N  0.40704083  0.37346939  0.32828182    -0.37700
N1274       N  0.39125503  0.33432709  0.37354798    -0.39300
N1275       N  0.45434397  0.36491958  0.19000112    -0.37100
N1276       N  0.43721206  0.32519726  0.23399130    -0.39400
N1277       N  0.43687796  0.33425227  0.39238883    -0.39200
N1278       N  0.41504115  0.29446452  0.43722591    -0.36800
N1279       N  0.36784935  0.27902781  0.25624090    -0.37900
N1280       N  0.38974590  0.31872782  0.21341451    -0.39600
C1281       C  0.33386031  0.23323162  0.69005465    -0.04500
C1282       C  0.32833748  0.23895444  0.65853148     0.09700
C1283       C  0.31794893  0.24200794  0.67317799    -0.01900
C1284       C  0.31283765  0.23901902  0.71887409    -0.00100
C1285       C  0.31816001  0.23302312  0.75035502    -0.03800
C1286       C  0.32892968  0.23042144  0.73590709     0.03300
C1287       C  0.33357073  0.24174629  0.60982311     0.10100
C1288       C  0.31250419  0.24818893  0.64105136     0.36000
C1289       C  0.33468764  0.22442903  0.76763659     0.39400
C1290       C  0.32705848  0.23127101  0.57604675    -0.04100
C1291       C  0.33270719  0.23341626  0.53108875     0.03000
C1292       C  0.34498903  0.24612988  0.51952624    -0.03700
C1293       C  0.35118234  0.25679302  0.55324418     0.00000
C1294       C  0.34551585  0.25456386  0.59815416    -0.02500
C1295       C  0.31475500  0.21808419  0.58814069     0.36700
C1296       C  0.36332031  0.27017896  0.54180925     0.40400
C1297       C  0.32620948  0.22218287  0.49770076     0.39500
C1298       C  0.35213524  0.26536651  0.63286688     0.36400
C1299       C  0.34445886  0.22997914  0.67482877     0.37100
C1300       C  0.30240366  0.24252422  0.73386683     0.40300
N1301       N  0.32099721  0.21318960  0.47119614    -0.37700
N1302       N  0.30495835  0.20756447  0.59787699    -0.39300
N1303       N  0.37300291  0.28086085  0.53271681    -0.37100
N1304       N  0.35740757  0.27395001  0.66067022    -0.39400
N1305       N  0.30817251  0.25313364  0.61539694    -0.39200
N1306       N  0.29412491  0.24536625  0.74598746    -0.36800
N1307       N  0.33936456  0.21971744  0.79288075    -0.37900
N1308       N  0.35286454  0.22735155  0.66242954    -0.39600
C1309       C  0.33451714  0.24335892  0.08039464    -0.04500
C1310       C  0.33322030  0.23212173  0.10741452     0.09700
C1311       C  0.32700730  0.21855063  0.08857110    -0.01900
C1312       C  0.32153661  0.21608928  0.04354202    -0.00100
C1313       C  0.32229434  0.22723636  0.01699138    -0.03800
C1314       C  0.32915763  0.24096198  0.03518612     0.03300
C1315       C  0.33822696  0.23456352  0.15614322     0.10100
C1316       C  0.32618917  0.20710867  0.11576323     0.36000
C1317       C  0.33017749  0.25255774  0.00838947     0.39400
C1318       C  0.32860546  0.23119771  0.19265642    -0.04100
C1319       C  0.33328413  0.23343256  0.23876101     0.03000
C1320       C  0.34773422  0.23935885  0.24861321    -0.03700
C1321       C  0.35738115  0.24313221  0.21149242     0.00000
C1322       C  0.35258933  0.24047280  0.16564771    -0.02500
C1323       C  0.31386733  0.22554353  0.18250546     0.36700
C1324       C  0.37235682  0.25042629  0.21989175     0.40400
C1325       C  0.32311420  0.22937510  0.27573497     0.39500
C1326       C  0.36246286  0.24389888  0.12799332     0.36400
C1327       C  0.34108429  0.25734649  0.09969976     0.37100
C1328       C  0.31535055  0.20209859  0.02430023     0.40300
N1329       N  0.31492556  0.22611988  0.30501560    -0.37700
N1330       N  0.30213961  0.22107541  0.17410883    -0.39300
N1331       N  0.38429825  0.25633108  0.22651544    -0.37100
N1332       N  0.37032674  0.24663000  0.09795071    -0.39400
N1333       N  0.32553622  0.19798931  0.13749363    -0.39200
N1334       N  0.31043198  0.19095872  0.00887975    -0.36800
N1335       N  0.33100818  0.26182669  0.98707841    -0.37900
N1336       N  0.34635108  0.26848637  0.11523624    -0.39600
C1337       C  0.84290162  0.71234780  0.92756599    -0.04500
C1338       C  0.84555106  0.70287458  0.90301793     0.09700
C1339       C  0.83482987  0.69230109  0.87626965    -0.01900
C1340       C  0.82140720  0.69095068  0.87498819    -0.00100
C1341       C  0.81858266  0.70022399  0.90051191    -0.03800
C1342       C  0.82948930  0.71104881  0.92637402     0.03300
C1343       C  0.85951176  0.70368718  0.90636079     0.10100
C1344       C  0.83763673  0.68271982  0.85032368     0.36000
C1345       C  0.82679405  0.72048481  0.95360017     0.39400
C1346       C  0.86225999  0.69702778  0.94312421    -0.04100
C1347       C  0.87504294  0.69700122  0.94494844     0.03000
C1348       C  0.88520141  0.70359892  0.90976464    -0.03700
C1349       C  0.88255264  0.71059380  0.87358353     0.00000
C1350       C  0.86975485  0.71061955  0.87195914    -0.02500
C1351       C  0.85180592  0.69004194  0.97884809     0.36700
C1352       C  0.89270372  0.71728613  0.83685598     0.40400
C1353       C  0.87783046  0.69042485  0.98372980     0.39500
C1354       C  0.86698407  0.71759495  0.83444346     0.36400
C1355       C  0.85397648  0.72333662  0.95458216     0.37100
C1356       C  0.81060946  0.68011077  0.84667952     0.40300
N1357       N  0.88008447  0.68521622  0.01468054    -0.37700
N1358       N  0.84345730  0.68448800  0.00732752    -0.39300
N1359       N  0.90078713  0.72262802  0.80750186    -0.37100
N1360       N  0.86474752  0.72314586  0.80452014    -0.39400
N1361       N  0.83994240  0.67512901  0.82961401    -0.39200
N1362       N  0.80205071  0.67142849  0.82405877    -0.36800
N1363       N  0.82461090  0.72798423  0.97535292    -0.37900
N1364       N  0.86280936  0.73210662  0.97615926    -0.39600
C1365       C  0.76416862  0.74082810  0.00039888    -0.04500
C1366       C  0.75145077  0.73938959  0.98453401     0.09700
C1367       C  0.74468633  0.73071013  0.94639309    -0.01900
C1368       C  0.75035327  0.72309993  0.92521804    -0.00100
C1369       C  0.76270559  0.72386008  0.94270552    -0.03800
C1370       C  0.76974683  0.73304161  0.97990972     0.03300
C1371       C  0.74508891  0.74699970  0.00795700     0.10100
C1372       C  0.73177327  0.72952047  0.92929601     0.36000
C1373       C  0.78237246  0.73403343  0.99890825     0.39400
C1374       C  0.74766872  0.76005414  0.99090720    -0.04100
C1375       C  0.74045417  0.76650005  0.00946302     0.03000
C1376       C  0.73089545  0.76010888  0.04635869    -0.03700
C1377       C  0.72906467  0.74747632  0.06542868     0.00000
C1378       C  0.73604988  0.74089540  0.04601541    -0.02500
C1379       C  0.75763656  0.76673400  0.95369554     0.36700
C1380       C  0.72005862  0.74126958  0.10524314     0.40400
C1381       C  0.74219637  0.77920706  0.98827944     0.39500
C1382       C  0.73380229  0.72772292  0.06475339     0.36400
C1383       C  0.77141495  0.75025308  0.03827934     0.37100
C1384       C  0.74360232  0.71474789  0.88472145     0.40300
N1385       N  0.74351360  0.78928431  0.97114308    -0.37700
N1386       N  0.76567457  0.77208154  0.92423615    -0.39300
N1387       N  0.71290712  0.73634702  0.13708275    -0.37100
N1388       N  0.73202364  0.71722462  0.07976713    -0.39400
N1389       N  0.72147264  0.72859748  0.91579230    -0.39200
N1390       N  0.73824839  0.70817395  0.85223117    -0.36800
N1391       N  0.79241466  0.73480480  0.01428723    -0.37900
N1392       N  0.77717937  0.75783250  0.06837952    -0.39600
C1393       C  0.49524589  0.52813532  0.70850407    -0.04500
C1394       C  0.48489263  0.52825666  0.73675683     0.09700
C1395       C  0.48804140  0.54050310  0.76139104    -0.01900
C1396       C  0.50166362  0.55237472  0.75937523    -0.00100
C1397       C  0.51233139  0.55202963  0.73295564    -0.03800
C1398       C  0.50887939  0.53983820  0.70684403     0.03300
C1399       C  0.47118611  0.51492936  0.74329024     0.10100
C1400       C  0.47734962  0.54068121  0.79003782     0.36000
C1401       C  0.51932124  0.53907973  0.67840756     0.39400
C1402       C  0.47075875  0.50414227  0.77069880    -0.04100
C1403       C  0.45883613  0.49064345  0.77043166     0.03000
C1404       C  0.44701343  0.48784059  0.74347019    -0.03700
C1405       C  0.44703175  0.49898746  0.71903215     0.00000
C1406       C  0.45911426  0.51246456  0.71880265    -0.02500
C1407       C  0.48279412  0.50694296  0.79860914     0.36700
C1408       C  0.43496132  0.49645956  0.69189711     0.40400
C1409       C  0.45883544  0.47964066  0.79797077     0.39500
C1410       C  0.45928414  0.52371837  0.69238759     0.36400
C1411       C  0.49189718  0.51570783  0.68185560     0.37100
C1412       C  0.50481509  0.56458474  0.78676791     0.40300
N1413       N  0.45891886  0.47089498  0.81984494    -0.37700
N1414       N  0.49241022  0.50926310  0.82088822    -0.39300
N1415       N  0.42532756  0.49444700  0.67023804    -0.37100
N1416       N  0.45938889  0.53273209  0.67156839    -0.39400
N1417       N  0.46877743  0.54079219  0.81279182    -0.39200
N1418       N  0.50729403  0.57429748  0.80877709    -0.36800
N1419       N  0.52756134  0.53823115  0.65601893    -0.37900
N1420       N  0.48919545  0.50577132  0.66078386    -0.39600
C1421       C  0.58922453  0.67806282  0.61840078    -0.04500
C1422       C  0.59533811  0.67349546  0.65189256     0.09700
C1423       C  0.60886746  0.68285678  0.66838392    -0.01900
C1424       C  0.61623768  0.69674563  0.65179198    -0.00100
C1425       C  0.61022719  0.70135136  0.61764128    -0.03800
C1426       C  0.59664308  0.69190500  0.60115330     0.03300
C1427       C  0.58793942  0.65854448  0.66776765     0.10100
C1428       C  0.61529404  0.67806654  0.70199873     0.36000
C1429       C  0.59049922  0.69618761  0.56498934     0.39400
C1430       C  0.58935216  0.64845716  0.64221150    -0.04100
C1431       C  0.58294612  0.63447100  0.65765562     0.03000
C1432       C  0.57502643  0.63040055  0.69898063    -0.03700
C1433       C  0.57354142  0.64050829  0.72447410     0.00000
C1434       C  0.58001054  0.65455066  0.70890738    -0.02500
C1435       C  0.59754336  0.65255262  0.60004147     0.36700
C1436       C  0.56590603  0.63663042  0.76769437     0.40400
C1437       C  0.58428300  0.62419455  0.63021959     0.39500
C1438       C  0.57870528  0.66497846  0.73543877     0.36400
C1439       C  0.57536643  0.66838016  0.60109490     0.37100
C1440       C  0.62987887  0.70634884  0.67103831     0.40300
N1441       N  0.58535335  0.61600990  0.60833042    -0.37700
N1442       N  0.60408276  0.65586269  0.56642847    -0.39300
N1443       N  0.55988008  0.63358202  0.80233550    -0.37100
N1444       N  0.57771706  0.67334452  0.75654622    -0.39400
N1445       N  0.62040787  0.67419282  0.72865626    -0.39200
N1446       N  0.64074303  0.71398512  0.68646776    -0.36800
N1447       N  0.58562760  0.69959193  0.53598464    -0.37900
N1448       N  0.56431462  0.66062858  0.58727087    -0.39600
C1449       C  0.68007625  0.77583589  0.86712823    -0.04500
C1450       C  0.67367452  0.76218209  0.84884762     0.09700
C1451       C  0.67255890  0.75106676  0.87612038    -0.01900
C1452       C  0.67765834  0.75354532  0.92177454    -0.00100
C1453       C  0.68413195  0.76725347  0.94024058    -0.03800
C1454       C  0.68535362  0.77839782  0.91245764     0.03300
C1455       C  0.66739012  0.75942275  0.80164011     0.10100
C1456       C  0.66613396  0.73706478  0.85698590     0.36000
C1457       C  0.69166693  0.79249893  0.93081360     0.39400
C1458       C  0.67448436  0.75787360  0.76366926    -0.04100
C1459       C  0.66847836  0.75531671  0.71922868     0.03000
C1460       C  0.65546447  0.75476424  0.71209168    -0.03700
C1461       C  0.64851024  0.75653331  0.75063574     0.00000
C1462       C  0.65432082  0.75852900  0.79509356    -0.02500
C1463       C  0.68797239  0.75884094  0.77054333     0.36700
C1464       C  0.63547268  0.75663507  0.74512144     0.40400
C1465       C  0.67555926  0.75275726  0.68152895     0.39500
C1466       C  0.64676236  0.75953057  0.83457208     0.36400
C1467       C  0.68108632  0.78724709  0.83924803     0.37100
C1468       C  0.67656048  0.74200661  0.94907657     0.40300
N1469       N  0.68122508  0.75065503  0.65164205    -0.37700
N1470       N  0.69872449  0.75960297  0.77609773    -0.39300
N1471       N  0.62507537  0.75672425  0.74100128    -0.37100
N1472       N  0.64074412  0.76026543  0.86615414    -0.39400
N1473       N  0.66107305  0.72594153  0.84138388    -0.39200
N1474       N  0.67563120  0.73275109  0.97071733    -0.36800
N1475       N  0.69672434  0.80374313  0.94543684    -0.37900
N1476       N  0.68181139  0.79631435  0.81703511    -0.39600
C1477       C  0.66496977  0.75937940  0.26833722    -0.04500
C1478       C  0.67079522  0.75471745  0.30249432     0.09700
C1479       C  0.68242090  0.75318426  0.29154697    -0.01900
C1480       C  0.68846936  0.75668579  0.24705396    -0.00100
C1481       C  0.68277199  0.76155025  0.21271214    -0.03800
C1482       C  0.67083046  0.76268473  0.22360810     0.03300
C1483       C  0.66516088  0.75231588  0.35080712     0.10100
C1484       C  0.68823611  0.74813117  0.32643114     0.36000
C1485       C  0.66491044  0.76792567  0.18969258     0.39400
C1486       C  0.65396678  0.73916450  0.36434881    -0.04100
C1487       C  0.64802593  0.73731006  0.40886158     0.03000
C1488       C  0.65324897  0.74865406  0.44021139    -0.03700
C1489       C  0.66453217  0.76180665  0.42640355     0.00000
C1490       C  0.67059347  0.76352828  0.38229519    -0.02500
C1491       C  0.64863409  0.72753611  0.33237863     0.36700
C1492       C  0.66939445  0.77386917  0.45637851     0.40400
C1493       C  0.63667492  0.72365487  0.42242954     0.39500
C1494       C  0.68243790  0.77691295  0.36902278     0.36400
C1495       C  0.65313474  0.76115600  0.27984139     0.37100
C1496       C  0.70049495  0.75512488  0.23671870     0.40300
N1497       N  0.62760764  0.71274746  0.43311986    -0.37700
N1498       N  0.64443851  0.71826311  0.30684640    -0.39300
N1499       N  0.67317490  0.78352402  0.48006828    -0.37100
N1500       N  0.69195660  0.78753976  0.35843998    -0.39400
N1501       N  0.69283336  0.74406450  0.35430587    -0.39200
N1502       N  0.71012443  0.75392170  0.22863414    -0.36800
N1503       N  0.66014463  0.77210777  0.16280007    -0.37900
N1504       N  0.64373420  0.76260416  0.28930325    -0.39600
C1505       C  0.53312145  0.48598020  0.25843530    -0.04500
C1506       C  0.53164008  0.47727000  0.22080030     0.09700
C1507       C  0.54252864  0.48173842  0.18809801    -0.01900
C1508       C  0.55447850  0.49523274  0.19140063    -0.00100
C1509       C  0.55565927  0.50428106  0.22790222    -0.03800
C1510       C  0.54512563  0.49933215  0.26231357     0.03300
C1511       C  0.51808603  0.46388719  0.21425479     0.10100
C1512       C  0.54122560  0.47251614  0.15050422     0.36000
C1513       C  0.54666177  0.50790485  0.30222053     0.39400
C1514       C  0.50775348  0.46370839  0.18517620    -0.04100
C1515       C  0.49415853  0.45195532  0.18454568     0.03000
C1516       C  0.49076145  0.44028296  0.21320186    -0.03700
C1517       C  0.50139504  0.44007342  0.23981684     0.00000
C1518       C  0.51502260  0.45186073  0.24029143    -0.02500
C1519       C  0.51101636  0.47584323  0.15695977     0.36700
C1520       C  0.49815461  0.42811449  0.26888747     0.40400
C1521       C  0.48364596  0.45189462  0.15430739     0.39500
C1522       C  0.52581749  0.45182905  0.26866704     0.36400
C1523       C  0.52203722  0.48132723  0.29256257     0.37100
C1524       C  0.56513792  0.49999973  0.15583077     0.40300
N1525       N  0.47524722  0.45181042  0.13021113    -0.37700
N1526       N  0.51365209  0.48551642  0.13437729    -0.39300
N1527       N  0.49555222  0.41857079  0.29210963    -0.37100
N1528       N  0.53444348  0.45180897  0.29128372    -0.39400
N1529       N  0.54014144  0.46510183  0.12062347    -0.39200
N1530       N  0.57360695  0.50376899  0.12730637    -0.36800
N1531       N  0.54788525  0.51470810  0.33412283    -0.37900
N1532       N  0.51317347  0.47758951  0.31968128    -0.39600
C1533       C  0.58413484  0.57790364  0.53915338    -0.04500
C1534       C  0.57316417  0.57009693  0.50794796     0.09700
C1535       C  0.55921625  0.56525360  0.52154705    -0.01900
C1536       C  0.55622043  0.56854589  0.56552076    -0.00100
C1537       C  0.56715790  0.57620334  0.59742342    -0.03800
C1538       C  0.58116033  0.58079411  0.58393954     0.03300
C1539       C  0.57615764  0.56677577  0.46061371     0.10100
C1540       C  0.54789539  0.55667029  0.49022579     0.36000
C1541       C  0.59260495  0.58898775  0.61528449     0.39400
C1542       C  0.57665317  0.55441985  0.45306940    -0.04100
C1543       C  0.57846314  0.55068993  0.40810856     0.03000
C1544       C  0.58016155  0.55952398  0.36994492    -0.03700
C1545       C  0.57960652  0.57195200  0.37790746     0.00000
C1546       C  0.57760874  0.57550983  0.42299016    -0.02500
C1547       C  0.57518253  0.54546559  0.49189495     0.36700
C1548       C  0.58130151  0.58130914  0.34013749     0.40400
C1549       C  0.57800229  0.53741991  0.40145486     0.39500
C1550       C  0.57707506  0.58822807  0.43090925     0.36400
C1551       C  0.59849824  0.58302878  0.52488577     0.37100
C1552       C  0.54178079  0.56392114  0.57758745     0.40300
N1553       N  0.57758329  0.52680283  0.39636773    -0.37700
N1554       N  0.57405391  0.53838258  0.52296298    -0.39300
N1555       N  0.58259766  0.58879143  0.31012529    -0.37100
N1556       N  0.57666155  0.59837509  0.43735657    -0.39400
N1557       N  0.53889431  0.54973070  0.46530989    -0.39200
N1558       N  0.53024848  0.56035930  0.58659051    -0.36800
N1559       N  0.60176188  0.59554200  0.64019425    -0.37900
N1560       N  0.60995389  0.58713978  0.51336116    -0.39600
C1561       C  0.56934390  0.56889894  0.04421384    -0.04500
C1562       C  0.57922344  0.57196593  0.00867270     0.09700
C1563       C  0.59153623  0.57149602  0.01814160    -0.01900
C1564       C  0.59382625  0.56768833  0.06246243    -0.00100
C1565       C  0.58380002  0.56429791  0.09799309    -0.03800
C1566       C  0.57160263  0.56510610  0.08864340     0.03300
C1567       C  0.57633240  0.57503363  0.96064561     0.10100
C1568       C  0.60183279  0.57486172  0.98197832     0.36000
C1569       C  0.56099309  0.56139690  0.12396403     0.39400
C1570       C  0.57875292  0.58848602  0.94868549    -0.04100
C1571       C  0.57566305  0.59118083  0.90376146     0.03000
C1572       C  0.57013393  0.58042113  0.87024650    -0.03700
C1573       C  0.56796479  0.56701435  0.88221437     0.00000
C1574       C  0.57098624  0.56434549  0.92716450    -0.02500
C1575       C  0.58444646  0.59955556  0.98277469     0.36700
C1576       C  0.56208061  0.55572447  0.84888657     0.40400
C1577       C  0.57860203  0.60516895  0.89173169     0.39500
C1578       C  0.56831273  0.55045835  0.93941992     0.36400
C1579       C  0.55664288  0.56930399  0.03457226     0.37100
C1580       C  0.60669643  0.56756042  0.07162879     0.40300
N1581       N  0.58100793  0.61635121  0.88214072    -0.37700
N1582       N  0.58897233  0.60836037  0.01008422    -0.39300
N1583       N  0.55739153  0.54671815  0.82230176    -0.37100
N1584       N  0.56617972  0.53938970  0.94932902    -0.39400
N1585       N  0.61003466  0.57752791  0.95308696    -0.39200
N1586       N  0.61696159  0.56746504  0.07904081    -0.36800
N1587       N  0.55249430  0.55842379  0.15203308    -0.37900
N1588       N  0.54652622  0.56964355  0.02673734    -0.39600
C1589       C  0.79203429  0.60617372  0.39381011    -0.04500
C1590       C  0.80340074  0.61496691  0.42244386     0.09700
C1591       C  0.80196980  0.62395289  0.45376676    -0.01900
C1592       C  0.78963945  0.62485301  0.45426558    -0.00100
C1593       C  0.77863473  0.61683258  0.42313903    -0.03800
C1594       C  0.77966493  0.60705256  0.39421327     0.03300
C1595       C  0.81736524  0.61586801  0.41651813     0.10100
C1596       C  0.81342411  0.63264086  0.48446322     0.36000
C1597       C  0.76835073  0.59841490  0.36300563     0.39400
C1598       C  0.82631119  0.62409017  0.38049989    -0.04100
C1599       C  0.83989318  0.62595322  0.37634628     0.03000
C1600       C  0.84486388  0.61987768  0.40899046    -0.03700
C1601       C  0.83570947  0.61131950  0.44444658     0.00000
C1602       C  0.82200436  0.60928287  0.44796131    -0.02500
C1603       C  0.82164507  0.63102982  0.34843825     0.36700
C1604       C  0.84055835  0.60519755  0.47894700     0.40400
C1605       C  0.84866648  0.63406473  0.33795122     0.39500
C1606       C  0.81275798  0.60070967  0.48471098     0.36400
C1607       C  0.79329717  0.59656307  0.36277694     0.37100
C1608       C  0.78826204  0.63400576  0.48714756     0.40300
N1609       N  0.85563116  0.64052978  0.30728644    -0.37700
N1610       N  0.81789089  0.63657937  0.32308207    -0.39300
N1611       N  0.84441378  0.60033760  0.50661924    -0.37100
N1612       N  0.80538343  0.59389868  0.51409821    -0.39400
N1613       N  0.82256958  0.63953250  0.50897823    -0.39200
N1614       N  0.78712897  0.64126360  0.51345016    -0.36800
N1615       N  0.75931551  0.59149931  0.33815078    -0.37900
N1616       N  0.79432469  0.58891299  0.33797011    -0.39600
C1617       C  0.68606649  0.58194320  0.30444984    -0.04500
C1618       C  0.67463888  0.58241325  0.32440520     0.09700
C1619       C  0.67646714  0.58947988  0.36655458    -0.01900
C1620       C  0.68982367  0.59677177  0.38720370    -0.00100
C1621       C  0.70150761  0.59699848  0.36593775    -0.03800
C1622       C  0.69945069  0.58920842  0.32499117     0.03300
C1623       C  0.66069936  0.57581455  0.30060479     0.10100
C1624       C  0.66453010  0.58924338  0.38857543     0.36000
C1625       C  0.71120859  0.58920985  0.30245171     0.39400
C1626       C  0.65038950  0.56193592  0.31085683    -0.04100
C1627       C  0.63684251  0.55614361  0.29168298     0.03000
C1628       C  0.63337882  0.56429930  0.26235393    -0.03700
C1629       C  0.64405095  0.57801721  0.25028276     0.00000
C1630       C  0.65760563  0.58371220  0.26938845    -0.02500
C1631       C  0.65365388  0.55375769  0.34242591     0.36700
C1632       C  0.64124152  0.58629042  0.21765257     0.40400
C1633       C  0.62638200  0.54194975  0.30407314     0.39500
C1634       C  0.66838383  0.59785095  0.25764468     0.36400
C1635       C  0.68405972  0.57409127  0.26237852     0.37100
C1636       C  0.69144948  0.60387862  0.43072757     0.40300
N1637       N  0.61808106  0.53060146  0.31389976    -0.37700
N1638       N  0.65627325  0.54726940  0.36772175    -0.39300
N1639       N  0.63907769  0.59293052  0.19154716    -0.37100
N1640       N  0.67702811  0.60911577  0.24839783    -0.39400
N1641       N  0.65495410  0.58894924  0.40612571    -0.39200
N1642       N  0.69270277  0.60951224  0.46549377    -0.36800
N1643       N  0.72060408  0.58922620  0.28453908    -0.37900
N1644       N  0.68248464  0.56777881  0.22892533    -0.39600
C1645       C  0.75254572  0.64420072  0.62647582    -0.04500
C1646       C  0.75275552  0.65699117  0.63245436     0.09700
C1647       C  0.75008497  0.66330016  0.59447574    -0.01900
C1648       C  0.74750359  0.65700801  0.55046609    -0.00100
C1649       C  0.74783431  0.64443272  0.54380423    -0.03800
C1650       C  0.75014474  0.63794973  0.58249279     0.03300
C1651       C  0.75622893  0.66398521  0.67871069     0.10100
C1652       C  0.75011700  0.67636620  0.60074652     0.36000
C1653       C  0.75054582  0.62506645  0.57723643     0.39400
C1654       C  0.77034054  0.67259276  0.69158875    -0.04100
C1655       C  0.77372742  0.67880274  0.73566508     0.03000
C1656       C  0.76299622  0.67623388  0.76774142    -0.03700
C1657       C  0.74885174  0.66754459  0.75477512     0.00000
C1658       C  0.74549911  0.66157357  0.71026949    -0.02500
C1659       C  0.78139797  0.67478232  0.65966478     0.36700
C1660       C  0.73770882  0.66490158  0.78691246     0.40400
C1661       C  0.78832969  0.68736243  0.74849513     0.39500
C1662       C  0.73099049  0.65282083  0.69693056     0.36400
C1663       C  0.75502131  0.63758154  0.66579619     0.37100
C1664       C  0.74403433  0.66328581  0.51247848     0.40300
N1665       N  0.79998051  0.69420187  0.75859410    -0.37700
N1666       N  0.79020232  0.67644260  0.63426355    -0.39300
N1667       N  0.72882408  0.66276707  0.81263656    -0.37100
N1668       N  0.71941785  0.64585944  0.68617172    -0.39400
N1669       N  0.75015451  0.68679773  0.60578633    -0.39200
N1670       N  0.74117599  0.66825127  0.48226371    -0.36800
N1671       N  0.75084073  0.61476909  0.57328650    -0.37900
N1672       N  0.75700109  0.63235590  0.69728375    -0.39600
C1673       C  0.76115014  0.67634475  0.12364763    -0.04500
C1674       C  0.75861151  0.66267194  0.13191035     0.09700
C1675       C  0.75759139  0.65407019  0.09441951    -0.01900
C1676       C  0.75976500  0.65934630  0.04892870    -0.00100
C1677       C  0.76300002  0.67330001  0.04076744    -0.03800
C1678       C  0.76311327  0.68156691  0.07826187     0.03300
C1679       C  0.75679079  0.65727476  0.18026302     0.10100
C1680       C  0.75440703  0.63980945  0.10287909     0.36000
C1681       C  0.76461649  0.69524576  0.07009489     0.39400
C1682       C  0.74369818  0.65181929  0.20242221    -0.04100
C1683       C  0.74196357  0.64681467  0.24812038     0.03000
C1684       C  0.75332658  0.64715761  0.27188508    -0.03700
C1685       C  0.76640336  0.65249907  0.24941082     0.00000
C1686       C  0.76816014  0.65767771  0.20392323    -0.02500
C1687       C  0.73194583  0.65110820  0.17761806     0.36700
C1688       C  0.77809100  0.65273842  0.27316817     0.40400
C1689       C  0.72825484  0.64055952  0.26962986     0.39500
C1690       C  0.78166851  0.66343113  0.18131603     0.36400
C1691       C  0.76184789  0.68507917  0.16205977     0.37100
C1692       C  0.75899102  0.65049468  0.01082943     0.40300
N1693       N  0.71728675  0.63548330  0.28658158    -0.37700
N1694       N  0.72262219  0.65055333  0.15753104    -0.39300
N1695       N  0.78738794  0.65286470  0.29208738    -0.37100
N1696       N  0.79244017  0.66803273  0.16323079    -0.39400
N1697       N  0.75185312  0.62843168  0.10978419    -0.39200
N1698       N  0.75828864  0.64339430  0.98041689    -0.36800
N1699       N  0.76561140  0.70607163  0.06371955    -0.37900
N1700       N  0.76240806  0.69202889  0.19275244    -0.39600
C1701       C  0.62580626  0.82383723  0.52639738    -0.04500
C1702       C  0.61702018  0.81381231  0.55911052     0.09700
C1703       C  0.60898320  0.81699400  0.58938649    -0.01900
C1704       C  0.61090671  0.83066791  0.59046605    -0.00100
C1705       C  0.62072384  0.84111790  0.56050121    -0.03800
C1706       C  0.62756076  0.83739859  0.52677169     0.03300
C1707       C  0.61816818  0.80097834  0.56648865     0.10100
C1708       C  0.59916501  0.80631076  0.62060105     0.36000
C1709       C  0.63656684  0.84758358  0.49266327     0.39400
C1710       C  0.62896156  0.80190045  0.59482771    -0.04100
C1711       C  0.63129719  0.79048405  0.59870593     0.03000
C1712       C  0.62298065  0.77800788  0.57342051    -0.03700
C1713       C  0.61170882  0.77691631  0.54665914     0.00000
C1714       C  0.60929258  0.78835639  0.54349949    -0.02500
C1715       C  0.63784634  0.81480782  0.61951389     0.36700
C1716       C  0.60291628  0.76430347  0.52068144     0.40400
C1717       C  0.64217453  0.79163896  0.62958031     0.39500
C1718       C  0.59780528  0.78726011  0.51609220     0.36400
C1719       C  0.63356969  0.82035798  0.49373620     0.37100
C1720       C  0.60353774  0.83416035  0.62464391     0.40300
N1721       N  0.65085570  0.79264747  0.65431735    -0.37700
N1722       N  0.64487269  0.82514747  0.63895387    -0.39300
N1723       N  0.59587892  0.75425070  0.49988621    -0.37100
N1724       N  0.58858541  0.78636753  0.49445877    -0.39400
N1725       N  0.59125271  0.79772215  0.64520287    -0.39200
N1726       N  0.59767669  0.83692426  0.65206971    -0.36800
N1727       N  0.64373867  0.85570915  0.46547663    -0.37900
N1728       N  0.63978094  0.81758445  0.46775709    -0.39600
C1729       C  0.56916083  0.91670196  0.65470631    -0.04500
C1730       C  0.58221292  0.91896087  0.67051651     0.09700
C1731       C  0.58876064  0.92805347  0.70790669    -0.01900
C1732       C  0.58267075  0.93540557  0.72803257    -0.00100
C1733       C  0.56968004  0.93343125  0.71179657    -0.03800
C1734       C  0.56287326  0.92384777  0.67528419     0.03300
C1735       C  0.58950953  0.91227756  0.64690373     0.10100
C1736       C  0.60189440  0.92987504  0.72542971     0.36000
C1737       C  0.54981887  0.92192503  0.65671792     0.39400
C1738       C  0.60061723  0.92020383  0.61604121    -0.04100
C1739       C  0.60857783  0.91454683  0.59757417     0.03000
C1740       C  0.60564222  0.90094424  0.61042911    -0.03700
C1741       C  0.59421327  0.89286638  0.64037096     0.00000
C1742       C  0.58614467  0.89850032  0.65821426    -0.02500
C1743       C  0.60413942  0.93440920  0.60453192     0.36700
C1744       C  0.59129122  0.87911534  0.65556633     0.40400
C1745       C  0.61978610  0.92278706  0.56524727     0.39500
C1746       C  0.57472948  0.89034850  0.68990724     0.36400
C1747       C  0.56238219  0.90725726  0.61644839     0.37100
C1748       C  0.58992652  0.94506340  0.76537375     0.40300
N1749       N  0.62871983  0.92937028  0.53946503    -0.37700
N1750       N  0.60699479  0.94577458  0.59572313    -0.39300
N1751       N  0.58901903  0.86818392  0.66788210    -0.37100
N1752       N  0.56561623  0.88384971  0.71518621    -0.39400
N1753       N  0.61234186  0.93121709  0.73918612    -0.39200
N1754       N  0.59584090  0.95283945  0.79488064    -0.36800
N1755       N  0.53942895  0.92039813  0.64169126    -0.37900
N1756       N  0.55697862  0.89970198  0.58597181    -0.39600
C1757       C  0.57993593  0.99233320  0.55773329    -0.04500
C1758       C  0.56969415  0.99372364  0.53281006     0.09700
C1759       C  0.55687397  0.99029669  0.55427407    -0.01900
C1760       C  0.55410774  0.98506334  0.59975784    -0.00100
C1761       C  0.56414971  0.98319996  0.62421861    -0.03800
C1762       C  0.57720294  0.98712863  0.60331092     0.03300
C1763       C  0.57260329  0.99931425  0.48447083     0.10100
C1764       C  0.54658237  0.99232706  0.52962835     0.36000
C1765       C  0.58767089  0.98537009  0.62794458     0.39400
C1766       C  0.56607912  0.99033039  0.44667317    -0.04100
C1767       C  0.56846328  0.99576330  0.40133930     0.03000
C1768       C  0.57782076  0.01016825  0.39328381    -0.03700
C1769       C  0.58452730  0.01908285  0.43135360     0.00000
C1770       C  0.58173209  0.01370589  0.47662992    -0.02500
C1771       C  0.55690186  0.97546567  0.45452512     0.36700
C1772       C  0.59463741  0.03378723  0.42423748     0.40400
C1773       C  0.56073606  0.98661740  0.36339226     0.39500
C1774       C  0.58820663  0.02301791  0.51545082     0.36400
C1775       C  0.59328386  0.99621090  0.53626880     0.37100
C1776       C  0.54107390  0.98201736  0.62194209     0.40300
N1777       N  0.55446489  0.97933785  0.33320684    -0.37700
N1778       N  0.54959654  0.96360338  0.46078574    -0.39300
N1779       N  0.60271376  0.04551221  0.41869997    -0.37100
N1780       N  0.59335640  0.03038356  0.54653563    -0.39400
N1781       N  0.53837686  0.99394053  0.50991122    -0.39200
N1782       N  0.53072686  0.97964810  0.63983412    -0.36800
N1783       N  0.59604529  0.98399999  0.64756162    -0.37900
N1784       N  0.60396420  0.99942116  0.51918956    -0.39600
C1785       C  0.57656746  0.01186106  0.03604097    -0.04500
C1786       C  0.57668126  0.99931200  0.02780167     0.09700
C1787       C  0.57974734  0.99282111  0.06431742    -0.01900
C1788       C  0.58295859  0.99894381  0.10859585    -0.00100
C1789       C  0.58259190  0.01139996  0.11743849    -0.03800
C1790       C  0.57919934  0.01772718  0.08074403     0.03300
C1791       C  0.57314714  0.99262010  0.98097090     0.10100
C1792       C  0.57938595  0.97965961  0.05630323     0.36000
C1793       C  0.57758399  0.02982236  0.08919390     0.39400
C1794       C  0.58350895  0.99696928  0.94637960    -0.04100
C1795       C  0.58026494  0.99031740  0.90288129     0.03000
C1796       C  0.56656118  0.97927000  0.89342305    -0.03700
C1797       C  0.55623395  0.97484409  0.92848844     0.00000
C1798       C  0.55950337  0.98157570  0.97179663    -0.02500
C1799       C  0.59755148  0.00829707  0.95574483     0.36700
C1800       C  0.54209374  0.96356463  0.91995005     0.40400
C1801       C  0.59122689  0.99447904  0.86859000     0.39500
C1802       C  0.54876500  0.97726782  0.00699973     0.36400
C1803       C  0.57348161  0.01860091  0.99850891     0.37100
C1804       C  0.58693379  0.99249582  0.14465630     0.40300
N1805       N  0.60000016  0.99773938  0.84135716    -0.37700
N1806       N  0.60873755  0.01736979  0.96325996    -0.39300
N1807       N  0.53081889  0.95452312  0.91338331    -0.37100
N1808       N  0.54022855  0.97388985  0.03515284    -0.39400
N1809       N  0.57894051  0.96908901  0.04983178    -0.39200
N1810       N  0.59014725  0.98735113  0.17332354    -0.36800
N1811       N  0.57615090  0.03938199  0.09591095    -0.37900
N1812       N  0.57108835  0.02401051  0.96850799    -0.39600
C1813       C  0.79215046  0.17698428  0.38629403    -0.04500
C1814       C  0.80262554  0.18081703  0.42005525     0.09700
C1815       C  0.80090749  0.17119790  0.45509166    -0.01900
C1816       C  0.78919038  0.15755435  0.45492285    -0.00100
C1817       C  0.77912337  0.15335146  0.41932040    -0.03800
C1818       C  0.78047708  0.16327857  0.38567921     0.03300
C1819       C  0.81636074  0.19415123  0.41525095     0.10100
C1820       C  0.81155934  0.17522404  0.49030685     0.36000
C1821       C  0.77046680  0.15914314  0.34831719     0.39400
C1822       C  0.81838503  0.20685173  0.43369432    -0.04100
C1823       C  0.83170335  0.21911591  0.43120691     0.03000
C1824       C  0.84322915  0.21868196  0.41101251    -0.03700
C1825       C  0.84094692  0.20587653  0.39157463     0.00000
C1826       C  0.82758888  0.19379361  0.39337876    -0.02500
C1827       C  0.80677690  0.20720092  0.45592677     0.36700
C1828       C  0.85222267  0.20497648  0.36892092     0.40400
C1829       C  0.83351036  0.23200929  0.45078707     0.39500
C1830       C  0.82532854  0.18083496  0.37270893     0.36400
C1831       C  0.79374303  0.18698441  0.35093374     0.37100
C1832       C  0.78758509  0.14782432  0.49135883     0.40300
N1833       N  0.83488675  0.24228939  0.46629209    -0.37700
N1834       N  0.79751254  0.20747311  0.47370343    -0.39300
N1835       N  0.86117688  0.20414958  0.35106395    -0.37100
N1836       N  0.82343612  0.17048265  0.35621517    -0.39400
N1837       N  0.82011926  0.17847742  0.51818655    -0.39200
N1838       N  0.78631553  0.14007460  0.52043495    -0.36800
N1839       N  0.76251974  0.15580420  0.31837680    -0.37900
N1840       N  0.79499621  0.19497729  0.32278086    -0.39600
C1841       C  0.68555322  0.08132473  0.30481359    -0.04500
C1842       C  0.67535160  0.08109274  0.33475061     0.09700
C1843       C  0.67947503  0.08782824  0.37792593    -0.01900
C1844       C  0.69363840  0.09426531  0.39187526    -0.00100
C1845       C  0.70374776  0.09383712  0.36288966    -0.03800
C1846       C  0.69965944  0.08761227  0.31879497     0.03300
C1847       C  0.66015925  0.07293652  0.32179509     0.10100
C1848       C  0.66903099  0.08783342  0.40835168     0.36000
C1849       C  0.71000820  0.08780302  0.28733797     0.39400
C1850       C  0.65158659  0.05944203  0.34036696    -0.04100
C1851       C  0.63747002  0.05136851  0.32672713     0.03000
C1852       C  0.63184666  0.05655137  0.29316378    -0.03700
C1853       C  0.64039866  0.07022975  0.27537508     0.00000
C1854       C  0.65447135  0.07837657  0.28976273    -0.02500
C1855       C  0.65739850  0.05378220  0.37320702     0.36700
C1856       C  0.63490355  0.07585042  0.24130933     0.40400
C1857       C  0.62863512  0.03793804  0.34885249     0.39500
C1858       C  0.66320144  0.09233674  0.27121123     0.36400
C1859       C  0.68145187  0.07484422  0.25977755     0.37100
C1860       C  0.69763078  0.10074133  0.43690154     0.40300
N1861       N  0.62159727  0.02728048  0.36676757    -0.37700
N1862       N  0.66206950  0.04930089  0.39936340    -0.39300
N1863       N  0.63051690  0.08035647  0.21419601    -0.37100
N1864       N  0.67018715  0.10346567  0.25633937    -0.39400
N1865       N  0.66064569  0.08776057  0.43256629    -0.39200
N1866       N  0.70078016  0.10590990  0.47285515    -0.36800
N1867       N  0.71825980  0.08795279  0.26228186    -0.37900
N1868       N  0.67815312  0.06973816  0.22378002    -0.39600
C1869       C  0.87502069  0.15244943  0.85876164    -0.04500
C1870       C  0.86233653  0.14865565  0.88181906     0.09700
C1871       C  0.86132188  0.15861353  0.90948396    -0.01900
C1872       C  0.87281978  0.17228958  0.91397035    -0.00100
C1873       C  0.88557643  0.17630304  0.89042137    -0.03800
C1874       C  0.88664420  0.16616649  0.86329072     0.03300
C1875       C  0.84971933  0.13432785  0.87662801     0.10100
C1876       C  0.84823970  0.15477761  0.93290754     0.36000
C1877       C  0.89948426  0.16989450  0.83861131     0.39400
C1878       C  0.84767952  0.12332112  0.90643226    -0.04100
C1879       C  0.83461409  0.11075977  0.90786948     0.03000
C1880       C  0.82343315  0.10921658  0.87989782    -0.03700
C1881       C  0.82580907  0.11990826  0.84797622     0.00000
C1882       C  0.83893068  0.13233222  0.84609552    -0.02500
C1883       C  0.85885395  0.12519292  0.93707188     0.36700
C1884       C  0.81469966  0.11818716  0.81717350     0.40400
C1885       C  0.83242837  0.09982977  0.94032982     0.39500
C1886       C  0.84124721  0.14331428  0.81367792     0.36400
C1887       C  0.87592016  0.14232804  0.82923357     0.37100
C1888       C  0.87147697  0.18209898  0.94389173     0.40300
N1889       N  0.83064696  0.09109067  0.96621245    -0.37700
N1890       N  0.86777659  0.12668094  0.96151547    -0.39300
N1891       N  0.80581955  0.11680277  0.79269389    -0.37100
N1892       N  0.84314515  0.15208354  0.78777230    -0.39400
N1893       N  0.83775471  0.15166821  0.95124412    -0.39200
N1894       N  0.87034916  0.18989172  0.96771520    -0.36800
N1895       N  0.90971773  0.17280052  0.81890005    -0.37900
N1896       N  0.87657950  0.13425279  0.80547290    -0.39600
C1897       C  0.74118162  0.08357376  0.61504765    -0.04500
C1898       C  0.75421510  0.08523597  0.62845471     0.09700
C1899       C  0.76524880  0.09018889  0.59614397    -0.01900
C1900       C  0.76338694  0.09373489  0.55092670    -0.00100
C1901       C  0.75040794  0.09239383  0.53749820    -0.03800
C1902       C  0.73924707  0.08707614  0.56980146     0.03300
C1903       C  0.75658932  0.08223912  0.67709053     0.10100
C1904       C  0.77869769  0.09201369  0.61006406     0.36000
C1905       C  0.72563291  0.08490202  0.55638522     0.39400
C1906       C  0.75602978  0.06950539  0.68816586    -0.04100
C1907       C  0.75973692  0.06730484  0.73272560     0.03000
C1908       C  0.76364572  0.07769189  0.76718083    -0.03700
C1909       C  0.76359499  0.09021953  0.75640981     0.00000
C1910       C  0.76024859  0.09252100  0.71144997    -0.02500
C1911       C  0.75174496  0.05870887  0.65337375     0.36700
C1912       C  0.76774876  0.10115573  0.79066876     0.40400
C1913       C  0.75950119  0.05429970  0.74292596     0.39500
C1914       C  0.76105417  0.10571706  0.69992039     0.36400
C1915       C  0.72979834  0.07837519  0.64814198     0.37100
C1916       C  0.77512278  0.09939015  0.51911995     0.40300
N1917       N  0.75940436  0.04396366  0.75095957    -0.37700
N1918       N  0.74827418  0.05008152  0.62563163    -0.39300
N1919       N  0.77105990  0.10990348  0.81790240    -0.37100
N1920       N  0.76174118  0.11625169  0.69055892    -0.39400
N1921       N  0.78939841  0.09346095  0.62142576    -0.39200
N1922       N  0.78451746  0.10390111  0.49387837    -0.36800
N1923       N  0.71475943  0.08313528  0.54567839    -0.37900
N1924       N  0.72074321  0.07426384  0.67465032    -0.39600
C1925       C  0.76246009  0.10613651  0.18390631    -0.04500
C1926       C  0.76543488  0.09527888  0.17627943     0.09700
C1927       C  0.76588320  0.08741928  0.21391145    -0.01900
C1928       C  0.76338801  0.09040403  0.25916259    -0.00100
C1929       C  0.75992457  0.10102711  0.26705258    -0.03800
C1930       C  0.75943812  0.10883899  0.22874159     0.03300
C1931       C  0.76789444  0.09200069  0.12825031     0.10100
C1932       C  0.76882468  0.07615448  0.20577852     0.36000
C1933       C  0.75524252  0.11930796  0.23456072     0.39400
C1934       C  0.78163486  0.09780888  0.11091610    -0.04100
C1935       C  0.78394858  0.09486689  0.06549590     0.03000
C1936       C  0.77249544  0.08589899  0.03711390    -0.03700
C1937       C  0.75870879  0.08010379  0.05466074     0.00000
C1938       C  0.75644472  0.08320120  0.09998150    -0.02500
C1939       C  0.79341296  0.10681762  0.14000923     0.36700
C1940       C  0.74683206  0.07046888  0.02698949     0.40400
C1941       C  0.79815085  0.10141323  0.04769427     0.39500
C1942       C  0.74231491  0.07717500  0.11796871     0.36400
C1943       C  0.76246604  0.11451586  0.14526631     0.37100
C1944       C  0.76476891  0.08270789  0.29742457     0.40300
N1945       N  0.80945636  0.10662110  0.03335125    -0.37700
N1946       N  0.80281812  0.11396185  0.16325000    -0.39300
N1947       N  0.73734378  0.06274839  0.00503793    -0.37100
N1948       N  0.73105779  0.07238664  0.13244069    -0.39400
N1949       N  0.77112907  0.06715480  0.19900552    -0.39200
N1950       N  0.76594866  0.07656473  0.32780950    -0.36800
N1951       N  0.75184301  0.12762139  0.23899113    -0.37900
N1952       N  0.76254413  0.12122475  0.11443648    -0.39600
C1953       C  0.70359827  0.85920092  0.05754123    -0.04500
C1954       C  0.71340720  0.85918894  0.08863841     0.09700
C1955       C  0.72166409  0.87113742  0.11564387    -0.01900
C1956       C  0.72001913  0.88302760  0.11200109    -0.00100
C1957       C  0.71010491  0.88306552  0.08100054    -0.03800
C1958       C  0.70201952  0.87109034  0.05338098     0.03300
C1959       C  0.71465791  0.84632335  0.09336064     0.10100
C1960       C  0.73169749  0.87106484  0.14773694     0.36000
C1961       C  0.69227151  0.87103033  0.01968687     0.39400
C1962       C  0.72271691  0.84364283  0.06149585    -0.04100
C1963       C  0.72219733  0.83056821  0.06161887     0.03000
C1964       C  0.71336658  0.82001930  0.09314264    -0.03700
C1965       C  0.70610660  0.82313038  0.12709806     0.00000
C1966       C  0.70677878  0.83623989  0.12723064    -0.02500
C1967       C  0.73108775  0.85418355  0.02742791     0.36700
C1968       C  0.69789105  0.81279433  0.16198533     0.40400
C1969       C  0.73016958  0.82778365  0.02771050     0.39500
C1970       C  0.69897603  0.83920127  0.16130761     0.36400
C1971       C  0.69496879  0.84681536  0.03020279     0.37100
C1972       C  0.72815930  0.89495872  0.14165652     0.40300
N1973       N  0.73660342  0.82564934  0.00067689    -0.37700
N1974       N  0.73770260  0.86262262  0.00023613    -0.39300
N1975       N  0.69136811  0.80451684  0.18973038    -0.37100
N1976       N  0.69277435  0.84156398  0.18858979    -0.39400
N1977       N  0.73967600  0.87097185  0.17339474    -0.39200
N1978       N  0.73464700  0.90446396  0.16539004    -0.36800
N1979       N  0.68450703  0.87095425  0.99272870    -0.37900
N1980       N  0.68809905  0.83689492  0.00860130    -0.39600
C1981       C  0.66113573  0.88974084  0.78511748    -0.04500
C1982       C  0.66305189  0.90214448  0.80593072     0.09700
C1983       C  0.66042493  0.91148186  0.78030073    -0.01900
C1984       C  0.65580661  0.90839513  0.73425735    -0.00100
C1985       C  0.65380153  0.89593115  0.71340787    -0.03800
C1986       C  0.65654806  0.88664420  0.73902963     0.03300
C1987       C  0.66882921  0.90583185  0.85379464     0.10100
C1988       C  0.66254679  0.92431859  0.80138867     0.36000
C1989       C  0.65515953  0.87414344  0.71748538     0.39400
C1990       C  0.68307698  0.91575169  0.86012757    -0.04100
C1991       C  0.68886706  0.91874718  0.90470311     0.03000
C1992       C  0.68061810  0.91136303  0.94344958    -0.03700
C1993       C  0.66615494  0.90184971  0.93723115     0.00000
C1994       C  0.66027191  0.89923442  0.89255027    -0.02500
C1995       C  0.69184176  0.92277597  0.82044468     0.36700
C1996       C  0.65736800  0.89438362  0.97633223     0.40400
C1997       C  0.70323759  0.92987246  0.91055633     0.39500
C1998       C  0.64541150  0.88972206  0.88627608     0.36400
C1999       C  0.66416551  0.88029507  0.81099645     0.37100
C2000       C  0.65264901  0.91784762  0.70894999     0.40300
N2001       N  0.71465247  0.93886648  0.91491062    -0.37700
N2002       N  0.69875918  0.92835663  0.78866011    -0.39300
N2003       N  0.65031157  0.88841144  0.00745616    -0.37100
N2004       N  0.63354347  0.88219002  0.88125271    -0.39400
N2005       N  0.66433806  0.93460297  0.81815375    -0.39200
N2006       N  0.65010734  0.92536380  0.68875002    -0.36800
N2007       N  0.65412388  0.86420797  0.70024153    -0.37900
N2008       N  0.66657973  0.87278187  0.83176780    -0.39600
C2009       C  0.67118091  0.91657169  0.27495182    -0.04500
C2010       C  0.67380055  0.90836817  0.30632664     0.09700
C2011       C  0.68211274  0.90258767  0.29243062    -0.01900
C2012       C  0.68786502  0.90508451  0.24752356    -0.00100
C2013       C  0.68510180  0.91317202  0.21567118    -0.03800
C2014       C  0.67657114  0.91875701  0.22959626     0.03300
C2015       C  0.66713375  0.90519722  0.35324031     0.10100
C2016       C  0.68453083  0.89384882  0.32422453     0.36000
C2017       C  0.67342154  0.92690171  0.19754174     0.39400
C2018       C  0.65395857  0.89313115  0.35996610    -0.04100
C2019       C  0.64752342  0.89006190  0.40380488     0.03000
C2020       C  0.65422374  0.89908525  0.44162663    -0.03700
C2021       C  0.66732611  0.91135532  0.43447713     0.00000
C2022       C  0.67374162  0.91436517  0.39048649    -0.02500
C2023       C  0.64698592  0.88388394  0.32142202     0.36700
C2024       C  0.67396345  0.92122690  0.47179077     0.40400
C2025       C  0.63412780  0.87736939  0.40990822     0.39500
C2026       C  0.68707962  0.92701109  0.38323180     0.36400
C2027       C  0.66290406  0.92277210  0.28961706     0.37100
C2028       C  0.69609328  0.89874499  0.23356693     0.40300
N2029       N  0.62342621  0.86726294  0.41468409    -0.37700
N2030       N  0.64143651  0.87655240  0.29057897    -0.39300
N2031       N  0.67922110  0.92915371  0.50146745    -0.37100
N2032       N  0.69769738  0.93712603  0.37731995    -0.39400
N2033       N  0.68641070  0.88682526  0.34950283    -0.39200
N2034       N  0.70263050  0.89366541  0.22243389    -0.36800
N2035       N  0.67080343  0.93332607  0.17195677    -0.37900
N2036       N  0.65636886  0.92775645  0.30171080    -0.39600
C2037       C  0.73981937  0.98720379  0.04173235    -0.04500
C2038       C  0.74728048  0.98932784  0.00017097     0.09700
C2039       C  0.74810244  0.97808535  0.98038085    -0.01900
C2040       C  0.74117258  0.96469190  0.00125794    -0.00100
C2041       C  0.73269286  0.96223631  0.04089270    -0.03800
C2042       C  0.73245163  0.97372154  0.06178883     0.03300
C2043       C  0.75387082  0.00334757  0.97660815     0.10100
C2044       C  0.75566034  0.98020897  0.93744814     0.36000
C2045       C  0.72482510  0.97176485  0.10447845     0.39400
C2046       C  0.76764515  0.01379399  0.98748408    -0.04100
C2047       C  0.77337212  0.02736883  0.96829977     0.03000
C2048       C  0.76540379  0.03056534  0.93736754    -0.03700
C2049       C  0.75186988  0.01979073  0.92459333     0.00000
C2050       C  0.74609559  0.00632472  0.94454523    -0.02500
C2051       C  0.77580907  0.01060993  0.01930271     0.36700
C2052       C  0.74393313  0.02243369  0.89015754     0.40400
C2053       C  0.78720572  0.03818136  0.98244700     0.39500
C2054       C  0.73200616  0.99553105  0.93272237     0.36400
C2055       C  0.73952866  0.99891381  0.06333516     0.37100
C2056       C  0.74248369  0.95340148  0.98080499     0.40300
N2057       N  0.79823320  0.04681106  0.99381091    -0.37700
N2058       N  0.78232453  0.00804328  0.04460940    -0.39300
N2059       N  0.73764006  0.02452451  0.86249459    -0.37100
N2060       N  0.72075714  0.98690554  0.92346000    -0.39400
N2061       N  0.76158310  0.98188028  0.90297282    -0.39200
N2062       N  0.74366146  0.94444784  0.96465062    -0.36800
N2063       N  0.71878200  0.97023431  0.13861432    -0.37900
N2064       N  0.73936905  0.00830541  0.08047949    -0.39600
C2065       C  0.28016327  0.12289429  0.86695834    -0.04500
C2066       C  0.28953751  0.13506003  0.89127526     0.09700
C2067       C  0.30029864  0.13515249  0.91766883    -0.01900
C2068       C  0.30192609  0.12325656  0.91894536    -0.00100
C2069       C  0.29280110  0.11110471  0.89345343    -0.03800
C2070       C  0.28183255  0.11098905  0.86764311     0.03300
C2071       C  0.28899419  0.14828527  0.88585296     0.10100
C2072       C  0.30988945  0.14767124  0.94289558     0.36000
C2073       C  0.27274452  0.09898955  0.83948910     0.39400
C2074       C  0.28148659  0.15177480  0.91741733    -0.04100
C2075       C  0.28218506  0.16491582  0.91453914     0.03000
C2076       C  0.29051496  0.17468950  0.88015380    -0.03700
C2077       C  0.29763081  0.17089981  0.84762633     0.00000
C2078       C  0.29686718  0.15777477  0.85055706    -0.02500
C2079       C  0.27349235  0.14202513  0.95391413     0.36700
C2080       C  0.30580729  0.18049272  0.81095792     0.40400
C2081       C  0.27502011  0.16864755  0.94877013     0.39500
C2082       C  0.30457342  0.15415087  0.81808272     0.36400
C2083       C  0.26898007  0.12279038  0.84039401     0.37100
C2084       C  0.31301389  0.12361899  0.94688735     0.40300
N2085       N  0.26931862  0.17161789  0.97617212    -0.37700
N2086       N  0.26716099  0.13425247  0.98311989    -0.39300
N2087       N  0.31235835  0.18810225  0.78167625    -0.37100
N2088       N  0.31072677  0.15121126  0.79240613    -0.39400
N2089       N  0.31752422  0.15767249  0.96293130    -0.39200
N2090       N  0.32190058  0.12396706  0.96905415    -0.36800
N2091       N  0.26553627  0.08946701  0.81675967    -0.37900
N2092       N  0.26004380  0.12272631  0.81932888    -0.39600
C2093       C  0.13543439  0.83662801  0.11775623    -0.04500
C2094       C  0.13631830  0.84699853  0.08721643     0.09700
C2095       C  0.12470296  0.84423575  0.05959898    -0.01900
C2096       C  0.11249386  0.83090080  0.06071140    -0.00100
C2097       C  0.11180844  0.82025720  0.08986623    -0.03800
C2098       C  0.12318253  0.82339134  0.11958981     0.03300
C2099       C  0.14989657  0.86044178  0.08182037     0.10100
C2100       C  0.12554300  0.85502489  0.02891928     0.36000
C2101       C  0.12225526  0.81306652  0.15266952     0.39400
C2102       C  0.16001880  0.86113984  0.05058545    -0.04100
C2103       C  0.17318274  0.87343053  0.04704486     0.03000
C2104       C  0.17652406  0.88511637  0.07570701    -0.03700
C2105       C  0.16610307  0.88453124  0.10583039     0.00000
C2106       C  0.15285136  0.87223130  0.10876159    -0.02500
C2107       C  0.15692571  0.84901673  0.02266016     0.36700
C2108       C  0.16910193  0.89630125  0.13533222     0.40400
C2109       C  0.18314635  0.87403446  0.01303943     0.39500
C2110       C  0.14231485  0.87152628  0.14034924     0.36400
C2111       C  0.14734979  0.83947450  0.14634674     0.37100
C2112       C  0.10098913  0.82799080  0.03001239     0.40300
N2113       N  0.19104733  0.87448171  0.98582836    -0.37700
N2114       N  0.15442246  0.83929864  0.00064743    -0.39300
N2115       N  0.17144375  0.90567523  0.15892146    -0.37100
N2116       N  0.13387672  0.87091931  0.16551498    -0.39400
N2117       N  0.12625310  0.86366890  0.00451585    -0.39200
N2118       N  0.09182830  0.82569258  0.00544951    -0.36800
N2119       N  0.12149231  0.80485236  0.17915679    -0.37900
N2120       N  0.15688702  0.84172961  0.16894858    -0.39600
C2121       C  0.26257832  0.00731353  0.93463132    -0.04500
C2122       C  0.25519262  0.00565084  0.97608878     0.09700
C2123       C  0.25493736  0.01725423  0.99536076    -0.01900
C2124       C  0.26259040  0.03060276  0.97460983    -0.00100
C2125       C  0.27056828  0.03244699  0.93416629    -0.03800
C2126       C  0.27026610  0.02064141  0.91379494     0.03300
C2127       C  0.24818229  0.99173890  0.00029284     0.10100
C2128       C  0.24698457  0.01547130  0.03714455     0.36000
C2129       C  0.27777952  0.02214419  0.87115539     0.39400
C2130       C  0.25552939  0.98871085  0.03387424    -0.04100
C2131       C  0.24947747  0.97521736  0.05385786     0.03000
C2132       C  0.23600909  0.96449995  0.03999838    -0.03700
C2133       C  0.22846180  0.96781965  0.00754915     0.00000
C2134       C  0.23451078  0.98139252  0.98814596    -0.02500
C2135       C  0.26948594  0.99949349  0.04715684     0.36700
C2136       C  0.21478135  0.95713167  0.99176852     0.40400
C2137       C  0.25715940  0.97248616  0.08899955     0.39500
C2138       C  0.22680939  0.98469820  0.95472953     0.36400
C2139       C  0.26237242  0.99526484  0.91375456     0.37100
C2140       C  0.26287187  0.04255125  0.99664126     0.40300
N2141       N  0.26333903  0.97038544  0.11706335    -0.37700
N2142       N  0.28060941  0.00815060  0.05754906    -0.39300
N2143       N  0.20388160  0.94864049  0.97890026    -0.37100
N2144       N  0.22071382  0.98741498  0.92812281    -0.39400
N2145       N  0.24061942  0.01405400  0.07044202    -0.39200
N2146       N  0.26313583  0.05209631  0.01423448    -0.36800
N2147       N  0.28376510  0.02332547  0.83713201    -0.37900
N2148       N  0.26212933  0.98560732  0.89715491    -0.39600
C2149       C  0.36851615  0.19311637  0.44293768    -0.04500
C2150       C  0.37787562  0.19179023  0.41299873     0.09700
C2151       C  0.38659555  0.20299059  0.38351840    -0.01900
C2152       C  0.38539654  0.21515000  0.38197828    -0.00100
C2153       C  0.37535606  0.21611035  0.40973246    -0.03800
C2154       C  0.36722118  0.20521258  0.44125465     0.03300
C2155       C  0.37730478  0.17798964  0.40842913     0.10100
C2156       C  0.39633649  0.20166927  0.35318062     0.36000
C2157       C  0.35742776  0.20639146  0.47183156     0.39400
C2158       C  0.36926195  0.16881834  0.37281409    -0.04100
C2159       C  0.36824693  0.15562205  0.36854077     0.03000
C2160       C  0.37494339  0.15126357  0.40073104    -0.03700
C2161       C  0.38336530  0.16064711  0.43563358     0.00000
C2162       C  0.38455791  0.17399490  0.43933543    -0.02500
C2163       C  0.36186329  0.17294097  0.34077280     0.36700
C2164       C  0.39046582  0.15647975  0.46864832     0.40400
C2165       C  0.36066605  0.14672985  0.32987569     0.39500
C2166       C  0.39312445  0.18359893  0.47515875     0.36400
C2167       C  0.35983812  0.18177822  0.47425619     0.37100
C2168       C  0.39383602  0.22621669  0.34950518     0.40300
N2169       N  0.35472598  0.13970744  0.29880825    -0.37700
N2170       N  0.35597197  0.17626309  0.31533015    -0.39300
N2171       N  0.39620502  0.15323698  0.49499881    -0.37100
N2172       N  0.39996645  0.19128218  0.50370999    -0.39400
N2173       N  0.40404205  0.20053778  0.32887718    -0.39200
N2174       N  0.40055094  0.23503266  0.32352524    -0.36800
N2175       N  0.34962091  0.20735021  0.49616055    -0.37900
N2176       N  0.35293986  0.17274186  0.49930190    -0.39600
C2177       C  0.32910404  0.07592136  0.58156627    -0.04500
C2178       C  0.33452869  0.08567682  0.61785614     0.09700
C2179       C  0.34637664  0.09892999  0.61019684    -0.01900
C2180       C  0.35272060  0.10251881  0.56632084    -0.00100
C2181       C  0.34712973  0.09289973  0.52924695    -0.03800
C2182       C  0.33537976  0.07947769  0.53742643     0.03300
C2183       C  0.32761868  0.08223859  0.66419746     0.10100
C2184       C  0.35184320  0.10902686  0.64746682     0.36000
C2185       C  0.32997860  0.06911879  0.50100832     0.39400
C2186       C  0.33214334  0.07643503  0.69883445    -0.04100
C2187       C  0.32657978  0.07447142  0.74384494     0.03000
C2188       C  0.31620324  0.07806167  0.75432762    -0.03700
C2189       C  0.31147378  0.08359855  0.71901540     0.00000
C2190       C  0.31717313  0.08565937  0.67422639    -0.02500
C2191       C  0.34257812  0.07251761  0.68799420     0.36700
C2192       C  0.30130160  0.08794311  0.72906504     0.40400
C2193       C  0.33153099  0.06866831  0.77913987     0.39500
C2194       C  0.31249707  0.09157315  0.63841608     0.36400
C2195       C  0.31696411  0.06225870  0.58977329     0.37100
C2196       C  0.36476345  0.11635118  0.55943179     0.40300
N2197       N  0.33555244  0.06411293  0.80731880    -0.37700
N2198       N  0.35084544  0.06932472  0.67921195    -0.39300
N2199       N  0.29322611  0.09145719  0.73702918    -0.37100
N2200       N  0.30879173  0.09627932  0.60975374    -0.39400
N2201       N  0.35615036  0.11708839  0.67714095    -0.39200
N2202       N  0.37440926  0.12737034  0.55424079    -0.36800
N2203       N  0.32567877  0.06079888  0.47209750    -0.37900
N2204       N  0.30726166  0.05138089  0.59653254    -0.39600
C2205       C  0.33422274  0.09778910  0.19143850    -0.04500
C2206       C  0.34033198  0.09250758  0.16045803     0.09700
C2207       C  0.35070358  0.08959030  0.17612564    -0.01900
C2208       C  0.35499069  0.09197287  0.22259412    -0.00100
C2209       C  0.34880209  0.09715941  0.25386939    -0.03800
C2210       C  0.33824587  0.09986455  0.23820918     0.03300
C2211       C  0.33512946  0.08916612  0.11198445     0.10100
C2212       C  0.35693980  0.08412508  0.14426706     0.36000
C2213       C  0.33173125  0.10508796  0.26984442     0.39400
C2214       C  0.34149510  0.09920093  0.07656411    -0.04100
C2215       C  0.33575819  0.09631667  0.03174499     0.03000
C2216       C  0.32359110  0.08339384  0.02238559    -0.03700
C2217       C  0.31779577  0.07304565  0.05721501     0.00000
C2218       C  0.32349440  0.07596809  0.10190878    -0.02500
C2219       C  0.35374053  0.11259976  0.08661427     0.36700
C2220       C  0.30610997  0.05925851  0.04681437     0.40400
C2221       C  0.34203219  0.10685937  0.99589996     0.39500
C2222       C  0.31725103  0.06547691  0.13793257     0.36400
C2223       C  0.32396554  0.10132200  0.17477905     0.37100
C2224       C  0.36547845  0.08865467  0.23853916     0.40300
N2225       N  0.34705300  0.11524742  0.96722782    -0.37700
N2226       N  0.36352555  0.12329236  0.09459405    -0.39300
N2227       N  0.29686401  0.04824335  0.03837375    -0.37100
N2228       N  0.31229576  0.05714744  0.16679219    -0.39400
N2229       N  0.36190837  0.07978648  0.11873502    -0.39200
N2230       N  0.37381362  0.08598079  0.25132722    -0.36800
N2231       N  0.32644581  0.10918214  0.29502180    -0.37900
N2232       N  0.31588647  0.10424581  0.16120817    -0.39600
C2233       C  0.51151287  0.04714813  0.22040977    -0.04500
C2234       C  0.51492185  0.03862308  0.24728029     0.09700
C2235       C  0.50484936  0.02856026  0.27722190    -0.01900
C2236       C  0.49120383  0.02658219  0.27894430    -0.00100
C2237       C  0.48759152  0.03497441  0.25149978    -0.03800
C2238       C  0.49794147  0.04543955  0.22271193     0.03300
C2239       C  0.52883918  0.03951504  0.24222393     0.10100
C2240       C  0.50857584  0.02017888  0.30623206     0.36000
C2241       C  0.49455499  0.05406528  0.19375432     0.39400
C2242       C  0.54037085  0.04906695  0.26880648    -0.04100
C2243       C  0.55293907  0.04858821  0.26821829     0.03000
C2244       C  0.55392345  0.03842559  0.24127440    -0.03700
C2245       C  0.54267981  0.02958382  0.21207969     0.00000
C2246       C  0.53017068  0.03008461  0.21279666    -0.02500
C2247       C  0.53908453  0.05904054  0.29794667     0.36700
C2248       C  0.54398665  0.01998891  0.18095493     0.40400
C2249       C  0.56453830  0.05809247  0.29707151     0.39500
C2250       C  0.51848173  0.02062213  0.18411341     0.36400
C2251       C  0.52195726  0.05748860  0.18970939     0.37100
C2252       C  0.48096994  0.01587388  0.30930627     0.40300
N2253       N  0.57379871  0.06572324  0.32000769    -0.37700
N2254       N  0.53802767  0.06699637  0.32113622    -0.39300
N2255       N  0.54506403  0.01236925  0.15613009    -0.37100
N2256       N  0.50914891  0.01306468  0.16130181    -0.39400
N2257       N  0.51158540  0.01355541  0.32948069    -0.39200
N2258       N  0.47283244  0.00721958  0.33324053    -0.36800
N2259       N  0.49192532  0.06099019  0.17056856    -0.37900
N2260       N  0.53034517  0.06571379  0.16528899    -0.39600
C2261       C  0.40991861  0.06106755  0.28154661    -0.04500
C2262       C  0.41648510  0.07121243  0.31634343     0.09700
C2263       C  0.42968073  0.07414474  0.33313758    -0.01900
C2264       C  0.43604222  0.06660836  0.31650266    -0.00100
C2265       C  0.42910215  0.05586522  0.28343840    -0.03800
C2266       C  0.41615869  0.05340895  0.26523472     0.03300
C2267       C  0.40919581  0.07842673  0.33627893     0.10100
C2268       C  0.43647783  0.08459733  0.36881399     0.36000
C2269       C  0.40925055  0.04306401  0.22931536     0.39400
C2270       C  0.39759340  0.07103278  0.36583484    -0.04100
C2271       C  0.39009538  0.07742380  0.38232565     0.03000
C2272       C  0.39399012  0.09127148  0.36879905    -0.03700
C2273       C  0.40606833  0.09888244  0.34085631     0.00000
C2274       C  0.41357133  0.09244349  0.32460190    -0.02500
C2275       C  0.39315552  0.05665789  0.37840543     0.36700
C2276       C  0.41053136  0.11314399  0.32682791     0.40400
C2277       C  0.37844654  0.06968863  0.41371624     0.39500
C2278       C  0.42554366  0.10008495  0.29439699     0.36400
C2279       C  0.39654839  0.05832496  0.26316117     0.37100
C2280       C  0.44940182  0.06949809  0.33536489     0.40300
N2281       N  0.36916856  0.06349640  0.43874992    -0.37700
N2282       N  0.38954112  0.04515314  0.38802380    -0.39300
N2283       N  0.41416842  0.12453627  0.31560873    -0.37100
N2284       N  0.43511493  0.10617102  0.27038915    -0.39400
N2285       N  0.44189076  0.09295569  0.39721277    -0.39200
N2286       N  0.46007527  0.07186134  0.35043618    -0.36800
N2287       N  0.40373541  0.03481271  0.20067902    -0.37900
N2288       N  0.38584704  0.05610449  0.24878606    -0.39600
C2289       C  0.46694998  0.95496223  0.73043945    -0.04500
C2290       C  0.46833600  0.94635351  0.76348142     0.09700
C2291       C  0.45713550  0.93832486  0.79392944    -0.01900
C2292       C  0.44490351  0.93949534  0.79304965    -0.00100
C2293       C  0.44371150  0.94856653  0.76104566    -0.03800
C2294       C  0.45470392  0.95598685  0.72889606     0.03300
C2295       C  0.48206541  0.94665621  0.76784184     0.10100
C2296       C  0.45833122  0.92899896  0.82651998     0.36000
C2297       C  0.45344799  0.96465287  0.69364468     0.39400
C2298       C  0.49222542  0.95605433  0.79895170    -0.04100
C2299       C  0.50588232  0.95797193  0.79881034     0.03000
C2300       C  0.50949999  0.95037206  0.76777136    -0.03700
C2301       C  0.49913547  0.94055666  0.73779867     0.00000
C2302       C  0.48550055  0.93876524  0.73774942    -0.02500
C2303       C  0.48872981  0.96416430  0.83001048     0.36700
C2304       C  0.50272567  0.93300041  0.70469221     0.40400
C2305       C  0.51624259  0.96794363  0.83040181     0.39500
C2306       C  0.47512940  0.92922726  0.70537985     0.36400
C2307       C  0.47833320  0.96301593  0.69845377     0.37100
C2308       C  0.43393966  0.93192451  0.82673626     0.40300
N2309       N  0.52449077  0.97598656  0.85542303    -0.37700
N2310       N  0.48590661  0.97062153  0.85470671    -0.39300
N2311       N  0.50562611  0.92703246  0.67814089    -0.37100
N2312       N  0.46686347  0.92167382  0.67939561    -0.39400
N2313       N  0.45930005  0.92151177  0.85231288    -0.39200
N2314       N  0.42524797  0.92589436  0.85383711    -0.36800
N2315       N  0.45249004  0.97158802  0.66554942    -0.37900
N2316       N  0.48743696  0.96940206  0.67301839    -0.39600
C2317       C  0.42649163  0.97788437  0.54252284    -0.04500
C2318       C  0.42704077  0.99072230  0.53413482     0.09700
C2319       C  0.42508513  0.99792739  0.57086706    -0.01900
C2320       C  0.42201712  0.99205743  0.61563622    -0.00100
C2321       C  0.42097143  0.97887418  0.62415620    -0.03800
C2322       C  0.42355466  0.97199383  0.58714160     0.03300
C2323       C  0.42982578  0.99670984  0.48637999     0.10100
C2324       C  0.42626487  0.01145035  0.56238188     0.36000
C2325       C  0.42360052  0.95898676  0.59458570     0.39400
C2326       C  0.41869987  0.99267981  0.45505095    -0.04100
C2327       C  0.42130868  0.99830357  0.40998363     0.03000
C2328       C  0.43515935  0.00788062  0.39560479    -0.03700
C2329       C  0.44630400  0.01183016  0.42731369     0.00000
C2330       C  0.44361347  0.00623938  0.47236584    -0.02500
C2331       C  0.40453189  0.98270950  0.46939892     0.36700
C2332       C  0.46065002  0.02147912  0.41373317     0.40400
C2333       C  0.40961068  0.99468387  0.37934411     0.39500
C2334       C  0.45506391  0.01016506  0.50442190     0.36400
C2335       C  0.42911645  0.97079887  0.50499166     0.37100
C2336       C  0.41965648  0.99956854  0.65232235     0.40300
N2337       N  0.40024567  0.99183850  0.35508157    -0.37700
N2338       N  0.39325214  0.97471153  0.48090914    -0.39300
N2339       N  0.47210884  0.02922913  0.40324725    -0.37100
N2340       N  0.46416870  0.01325324  0.53006779    -0.39400
N2341       N  0.42729152  0.02226965  0.55553225    -0.39200
N2342       N  0.41782376  0.00563934  0.68145791    -0.36800
N2343       N  0.42365373  0.94861978  0.60034273    -0.37900
N2344       N  0.43125241  0.96519153  0.47504525    -0.39600
C2345       C  0.41555991  0.99386035  0.95052120    -0.04500
C2346       C  0.41897229  0.98760983  0.98688709     0.09700
C2347       C  0.41906876  0.97504754  0.97895960    -0.01900
C2348       C  0.41588744  0.96879428  0.93486693    -0.00100
C2349       C  0.41280878  0.97521684  0.89766031    -0.03800
C2350       C  0.41254676  0.98776758  0.90613191     0.03300
C2351       C  0.42286919  0.99447641  0.03338452     0.10100
C2352       C  0.42280431  0.96873200  0.01617397     0.36000
C2353       C  0.40899446  0.99441328  0.86953510     0.39400
C2354       C  0.41241531  0.99209815  0.06607661    -0.04100
C2355       C  0.41612397  0.99852673  0.10990130     0.03000
C2356       C  0.43037542  0.00730208  0.12158755    -0.03700
C2357       C  0.44082929  0.00966157  0.08859159     0.00000
C2358       C  0.43707237  0.00332509  0.04473451    -0.02500
C2359       C  0.39781411  0.98300535  0.05441249     0.36700
C2360       C  0.45553805  0.01824179  0.10014035     0.40400
C2361       C  0.40522229  0.99650950  0.14220024     0.39500
C2362       C  0.44784462  0.00585362  0.01113869     0.36400
C2363       C  0.41535604  0.00673088  0.95884579     0.37100
C2364       C  0.41636970  0.95600788  0.92786176     0.40300
N2365       N  0.39649795  0.99494680  0.16781652    -0.37700
N2366       N  0.38618081  0.97573922  0.04491232    -0.39300
N2367       N  0.46725793  0.02507198  0.10941844    -0.37100
N2368       N  0.45642932  0.00786238  0.98430713    -0.39400
N2369       N  0.42587537  0.96375581  0.04579327    -0.39200
N2370       N  0.41672537  0.94578747  0.92248973    -0.36800
N2371       N  0.40619780  0.99978479  0.84045035    -0.37900
N2372       N  0.41519983  0.01699035  0.96572447    -0.39600
C2373       C  0.19501952  0.82486986  0.54065250    -0.04500
C2374       C  0.19339652  0.81516374  0.57521051     0.09700
C2375       C  0.20434736  0.81843113  0.60661935    -0.01900
C2376       C  0.21684417  0.83146142  0.60390153    -0.00100
C2377       C  0.21830733  0.84141189  0.57029065    -0.03800
C2378       C  0.20741193  0.83795940  0.53820251     0.03300
C2379       C  0.17982613  0.80174811  0.57961335     0.10100
C2380       C  0.20250106  0.80854552  0.64274987     0.36000
C2381       C  0.20898024  0.84781697  0.50225725     0.39400
C2382       C  0.17703762  0.79020216  0.55161767    -0.04100
C2383       C  0.16374032  0.77798956  0.55285444     0.03000
C2384       C  0.15317133  0.77726397  0.58242811    -0.03700
C2385       C  0.15631838  0.78860097  0.61237442     0.00000
C2386       C  0.16954010  0.80083550  0.61054801    -0.02500
C2387       C  0.18783754  0.79103640  0.52099731     0.36700
C2388       C  0.14609114  0.78760361  0.64601041     0.40400
C2389       C  0.16084903  0.76645498  0.52231330     0.39500
C2390       C  0.17253343  0.81262631  0.64003336     0.36400
C2391       C  0.18373157  0.82149080  0.50838047     0.37100
C2392       C  0.22788527  0.83484833  0.63715654     0.40300
N2393       N  0.15858271  0.75726031  0.49795173    -0.37700
N2394       N  0.19649132  0.79174173  0.49665886    -0.39300
N2395       N  0.13795694  0.78677834  0.67294392    -0.37100
N2396       N  0.17495502  0.82204361  0.66351219    -0.39400
N2397       N  0.20093211  0.80067574  0.67175960    -0.39200
N2398       N  0.23670172  0.83753242  0.66365093    -0.36800
N2399       N  0.21022588  0.85566106  0.47355370    -0.37900
N2400       N  0.17469786  0.81875952  0.48275070    -0.39600
C2401       C  0.32178926  0.91851660  0.61346568    -0.04500
C2402       C  0.32485049  0.91095063  0.64614214     0.09700
C2403       C  0.31456639  0.89708746  0.65709857    -0.01900
C2404       C  0.30102957  0.89110451  0.63759935    -0.00100
C2405       C  0.29760461  0.89903379  0.60714644    -0.03800
C2406       C  0.30826445  0.91264944  0.59416613     0.03300
C2407       C  0.33877310  0.91786049  0.67023091     0.10100
C2408       C  0.31783882  0.88910808  0.68950328     0.36000
C2409       C  0.30542389  0.92069000  0.56064718     0.39400
C2410       C  0.34119247  0.92705265  0.70736950    -0.04100
C2411       C  0.35444895  0.93409501  0.72891941     0.03000
C2412       C  0.36548956  0.93202976  0.71346492    -0.03700
C2413       C  0.36301334  0.92285352  0.67593080     0.00000
C2414       C  0.34971309  0.91576642  0.65469961    -0.02500
C2415       C  0.33004688  0.92947994  0.72269955     0.36700
C2416       C  0.37441272  0.92146061  0.65670253     0.40400
C2417       C  0.35665461  0.94348966  0.76696935     0.39500
C2418       C  0.34739790  0.90669662  0.61558302     0.36400
C2419       C  0.33260940  0.93246587  0.60008468     0.37100
C2420       C  0.29050791  0.87702306  0.65093820     0.40300
N2421       N  0.35836360  0.95101881  0.79717826    -0.37700
N2422       N  0.32114224  0.93144024  0.73454397    -0.39300
N2423       N  0.38354674  0.92046796  0.64111148    -0.37100
N2424       N  0.34554197  0.89948454  0.58429056    -0.39400
N2425       N  0.32045722  0.88272868  0.71528251    -0.39200
N2426       N  0.28214776  0.86577610  0.66158880    -0.36800
N2427       N  0.30318553  0.92713786  0.53396774    -0.37900
N2428       N  0.34128449  0.94357709  0.58945657    -0.39600
C2429       C  0.23220554  0.91488016  0.85481092    -0.04500
C2430       C  0.23673126  0.90506482  0.84870670     0.09700
C2431       C  0.23860425  0.89847388  0.88766304    -0.01900
C2432       C  0.23572991  0.90149124  0.93233894    -0.00100
C2433       C  0.23136588  0.91147923  0.93859857    -0.03800
C2434       C  0.22988387  0.91834579  0.89946372     0.03300
C2435       C  0.23936050  0.90159288  0.80104312     0.10100
C2436       C  0.24332500  0.88842116  0.88167115     0.36000
C2437       C  0.22637366  0.92932865  0.90488364     0.39400
C2438       C  0.25101372  0.91150392  0.77528509    -0.04100
C2439       C  0.25315208  0.90846901  0.72974031     0.03000
C2440       C  0.24407565  0.89519389  0.71042269    -0.03700
C2441       C  0.23258074  0.88516400  0.73664245     0.00000
C2442       C  0.22999973  0.88852689  0.78114508    -0.02500
C2443       C  0.26091071  0.92479094  0.79594674     0.36700
C2444       C  0.22321467  0.87143273  0.71759443     0.40400
C2445       C  0.26497615  0.91888898  0.70336017     0.39500
C2446       C  0.21751265  0.87866645  0.80615682     0.36400
C2447       C  0.22963683  0.92120406  0.81485224     0.37100
C2448       C  0.23668707  0.89382181  0.97150886     0.40300
N2449       N  0.27436020  0.92722533  0.68220637    -0.37700
N2450       N  0.26879846  0.93538364  0.81247602    -0.39300
N2451       N  0.21580901  0.86044775  0.70253494    -0.37100
N2452       N  0.20752363  0.87086543  0.82610990    -0.39400
N2453       N  0.24702080  0.88034779  0.87688305    -0.39200
N2454       N  0.23738396  0.88764998  0.00271561    -0.36800
N2455       N  0.22365985  0.93814771  0.90905700    -0.37900
N2456       N  0.22755798  0.92618040  0.78287764    -0.39600
C2457       C  0.24195394  0.92053196  0.28890324    -0.04500
C2458       C  0.23915870  0.90689465  0.29991470     0.09700
C2459       C  0.23354981  0.89638532  0.26584533    -0.01900
C2460       C  0.23063334  0.89943947  0.22122935    -0.00100
C2461       C  0.23311031  0.91303334  0.21038058    -0.03800
C2462       C  0.23885881  0.92357414  0.24452190     0.03300
C2463       C  0.24207216  0.90356138  0.34753584     0.10100
C2464       C  0.23061961  0.88234566  0.27705985     0.36000
C2465       C  0.24202562  0.93770178  0.23360683     0.39400
C2466       C  0.23231103  0.90051336  0.38344189    -0.04100
C2467       C  0.23490331  0.89713002  0.42802568     0.03000
C2468       C  0.24743513  0.89695253  0.43742463    -0.03700
C2469       C  0.25715172  0.89991982  0.40114477     0.00000
C2470       C  0.25446906  0.90321049  0.35654629    -0.02500
C2471       C  0.21945506  0.90065538  0.37418355     0.36700
C2472       C  0.27006651  0.89982362  0.40963754     0.40400
C2473       C  0.22425777  0.89307877  0.46344461     0.39500
C2474       C  0.26449140  0.90627076  0.31968492     0.36400
C2475       C  0.24817665  0.93147631  0.32329918     0.37100
C2476       C  0.22461433  0.88839803  0.18705834     0.40300
N2477       N  0.21571087  0.88974342  0.49155090    -0.37700
N2478       N  0.20921480  0.90079509  0.36674460    -0.39300
N2479       N  0.28035274  0.89970452  0.41635504    -0.37100
N2480       N  0.27245088  0.90868947  0.29016248    -0.39400
N2481       N  0.22830514  0.87116441  0.28618704    -0.39200
N2482       N  0.21982977  0.87956929  0.15986133    -0.36800
N2483       N  0.24458626  0.94898239  0.22482533    -0.37900
N2484       N  0.25318584  0.94018989  0.35080627    -0.39600
loop_ 
_geom_bond_atom_site_label_1 
_geom_bond_atom_site_label_2 
_geom_bond_distance 
_geom_bond_site_symmetry_2 
_ccdc_geom_bond_type 
O1            C4   1.269       .  A
O1           Cd6   2.488       .  S
C2           O11   1.266       .  A
C2            O7   1.268       .  A
C2         C2468   1.499       .  S
O3            C9   1.269       .  A
O3           Cd6   2.498       .  S
C4           O12   1.264       .  A
C4         C2440   1.488       .  S
C5           O10   1.270       .  A
C5            O8   1.264       .  A
C5         C2377   1.485       .  S
Cd6          O13   2.456       .  S
Cd6          O12   2.447       .  S
Cd6          O11   2.478       .  S
Cd6           O7   2.487       .  S
Cd6          O10   2.484       .  S
Cd6           O8   2.428       .  S
C9           O13   1.265       .  A
C9         C2405   1.500       .  S
O14          C17   1.268       .  A
O14         Cd19   2.488       .  S
C15          O24   1.264       .  A
C15          O20   1.270       .  A
C15        C2321   1.502       .  S
O16          C22   1.270       .  A
O16         Cd19   2.531       .  S
C17          O25   1.267       .  A
C17        C2349   1.503       .  S
C18          O23   1.270       .  A
C18          O21   1.267       .  A
C18        C2412   1.499       .  S
Cd19         O26   2.436       .  S
Cd19         O25   2.473       .  S
Cd19         O24   2.426       .  S
Cd19         O20   2.497       .  S
Cd19         O23   2.489       .  S
Cd19         O21   2.471       .  S
C22          O26   1.263       .  A
C22        C2293   1.498       .  S
O27          C30   1.268       .  A
O27         Cd32   2.498       .  S
C28          O37   1.264       .  A
C28          O33   1.270       .  A
C28        C2328   1.495       .  S
O29          C35   1.269       .  A
O29         Cd32   2.487       .  S
C30          O38   1.265       .  A
C30        C2356   1.495       .  S
C31          O36   1.268       .  A
C31          O34   1.265       .  A
C31        C2265   1.492       .  S
Cd32         O39   2.434       .  S
Cd32         O38   2.461       .  S
Cd32         O37   2.444       .  S
Cd32         O33   2.495       .  S
Cd32         O36   2.487       .  S
Cd32         O34   2.446       .  S
C35          O39   1.265       .  A
C35        C2237   1.494       .  S
O40          C43   1.269       .  A
O40         Cd45   2.493       .  S
C41          O50   1.264       .  A
C41          O46   1.270       .  A
C41        C2209   1.486       .  S
O42          C48   1.268       .  A
O42         Cd45   2.501       .  S
C43          O51   1.264       .  A
C43        C2181   1.495       .  S
C44          O49   1.270       .  A
C44          O47   1.266       .  A
C44        C2272   1.496       .  S
Cd45         O52   2.434       .  S
Cd45         O51   2.445       .  S
Cd45         O50   2.434       .  S
Cd45         O46   2.499       .  S
Cd45         O49   2.474       .  S
Cd45         O47   2.433       .  S
C48          O52   1.264       .  A
C48        C2160   1.489       .  S
O53          C56   1.267       .  A
O53         Cd58   2.491       .  S
C54          O63   1.264       .  A
C54          O59   1.270   1_556  A
C54        C2433   1.493       .  S
O55          C61   1.270       .  A
O55         Cd58   2.513       .  S
C56          O64   1.267       .  A
C56        C2461   1.497       .  S
C57          O62   1.269       .  A
C57          O60   1.266       .  A
C57        C2132   1.502       .  S
Cd58         O65   2.434       .  S
Cd58         O64   2.490       .  S
Cd58         O63   2.438   1_554  S
Cd58         O59   2.490       .  S
Cd58         O62   2.500       .  S
Cd58         O60   2.473       .  S
C61          O65   1.263       .  A
C61        C2104   1.498       .  S
O66          C69   1.266       .  A
O66         Cd71   2.468       .  S
C67          O76   1.263       .  A
C67          O72   1.267       .  A
C67        C2216   1.483   1_556  S
O68          C74   1.267       .  A
O68         Cd71   2.491       .  S
C69          O77   1.266       .  A
C69        C2188   1.493       .  S
C70          O75   1.268       .  A
C70          O73   1.266       .  A
C70        C2125   1.493       .  S
Cd71         O78   2.445       .  S
Cd71         O77   2.463       .  S
Cd71         O76   2.428       .  S
Cd71         O72   2.493       .  S
Cd71         O75   2.474       .  S
Cd71         O73   2.462       .  S
C74          O78   1.264       .  A
C74        C2069   1.494       .  S
O79          C82   1.269   1_554  A
O79         Cd84   2.508       .  S
C80          O89   1.265       .  A
C80          O85   1.268       .  A
C80        C2013   1.495       .  S
O81          C87   1.268       .  A
O81         Cd84   2.486       .  S
C82          O90   1.264       .  A
C82        C1992   1.494       .  S
C83          O88   1.267       .  A
C83          O86   1.266       .  A
C83        C2041   1.498       .  S
Cd84         O91   2.453       .  S
Cd84         O90   2.437   1_554  S
Cd84         O89   2.471       .  S
Cd84         O85   2.494       .  S
Cd84         O88   2.495       .  S
Cd84         O86   2.475       .  S
C87          O91   1.265       .  A
C87        C1957   1.494       .  S
O92          C95   1.267       .  A
O92         Cd97   2.484       .  S
C93         O102   1.264       .  A
C93          O98   1.269       .  A
C93        C1936   1.491   1_556  S
O94         C100   1.269       .  A
O94         Cd97   2.495       .  S
C95         O103   1.266       .  A
C95        C1908   1.496       .  S
C96         O101   1.269       .  A
C96          O99   1.264       .  A
C96        C1880   1.492       .  S
Cd97        O104   2.462       .  S
Cd97        O103   2.468       .  S
Cd97        O102   2.438       .  S
Cd97         O98   2.486       .  S
Cd97        O101   2.504       .  S
Cd97         O99   2.447       .  S
C100        O104   1.265       .  A
C100       C2048   1.498       .  S
O105        C108   1.267       .  A
O105       Cd110   2.492       .  S
C106        O115   1.264       .  A
C106        O111   1.268       .  A
C106       C1929   1.502       .  S
O107        C113   1.268       .  A
O107       Cd110   2.513       .  S
C108        O116   1.265       .  A
C108       C1901   1.498       .  S
C109        O114   1.269       .  A
C109        O112   1.265       .  A
C109       C1817   1.492       .  S
Cd110       O117   2.447       .  S
Cd110       O116   2.476       .  S
Cd110       O115   2.454       .  S
Cd110       O111   2.499       .  S
Cd110       O114   2.489       .  S
Cd110       O112   2.449       .  S
C113        O117   1.263       .  A
C113       C1845   1.492       .  S
O118        C121   1.270       .  A
O118       Cd123   2.496       .  S
C119        O128   1.266       .  A
C119        O124   1.269       .  A
C119       C1789   1.501       .  S
O120        C126   1.270       .  A
O120       Cd123   2.490       .  S
C121        O129   1.264       .  A
C121       C1768   1.493       .  S
C122        O127   1.269       .  A
C122        O125   1.266       .  A
C122       C1852   1.495       .  S
Cd123       O130   2.409       .  S
Cd123       O129   2.432       .  S
Cd123       O128   2.472       .  S
Cd123       O124   2.485       .  S
Cd123       O127   2.485       .  S
Cd123       O125   2.449       .  S
C126        O130   1.264       .  A
C126       C2244   1.486       .  S
O131        C134   1.267       .  A
O131       Cd136   2.483       .  S
C132        O141   1.263       .  A
C132        O137   1.267       .  A
C132       C1761   1.487       .  S
O133        C139   1.268       .  A
O133       Cd136   2.504       .  S
C134        O142   1.267       .  A
C134       C1796   1.497       .  S
C135        O140   1.270       .  A
C135        O138   1.265       .  A
C135       C2300   1.493       .  S
Cd136       O143   2.462       .  S
Cd136       O142   2.484       .  S
Cd136       O141   2.442       .  S
Cd136       O137   2.488       .  S
Cd136       O140   2.497       .  S
Cd136       O138   2.446       .  S
C139        O143   1.264       .  A
C139       C1733   1.498       .  S
O144        C147   1.267       .  A
O144       Cd149   2.481       .  S
C145        O154   1.265       .  A
C145        O150   1.267       .  A
C145       C2020   1.496       .  S
O146        C152   1.268       .  A
O146       Cd149   2.490       .  S
C147        O155   1.264       .  A
C147       C1985   1.487       .  S
C148        O153   1.267       .  A
C148        O151   1.265       .  A
C148       C1740   1.492       .  S
Cd149       O156   2.432       .  S
Cd149       O155   2.457       .  S
Cd149       O154   2.467       .  S
Cd149       O150   2.493       .  S
Cd149       O153   2.477       .  S
Cd149       O151   2.455       .  S
C152        O156   1.265       .  A
C152       C1705   1.488       .  S
O157        C160   1.268       .  A
O157       Cd162   2.486       .  S
C158        O167   1.263       .  A
C158        O163   1.267       .  A
C158       C1684   1.486       .  S
O159        C165   1.270       .  A
O159       Cd162   2.496       .  S
C160        O168   1.266       .  A
C160       C1649   1.499       .  S
C161        O166   1.268       .  A
C161        O164   1.264       .  A
C161       C1621   1.494       .  S
Cd162       O169   2.444       .  S
Cd162       O168   2.470       .  S
Cd162       O167   2.458       .  S
Cd162       O163   2.494       .  S
Cd162       O166   2.485       .  S
Cd162       O164   2.461       .  S
C165        O169   1.266       .  A
C165       C1593   1.492       .  S
O170        C173   1.267       .  A
O170       Cd175   2.501       .  S
C171        O180   1.264       .  A
C171        O176   1.269       .  A
C171       C1544   1.503       .  S
O172        C178   1.267       .  A
O172       Cd175   2.513       .  S
C173        O181   1.265       .  A
C173       C1565   1.498       .  S
C174        O179   1.268       .  A
C174        O177   1.267       .  A
C174       C1628   1.503       .  S
Cd175       O182   2.449       .  S
Cd175       O181   2.477       .  S
Cd175       O180   2.451       .  S
Cd175       O176   2.501       .  S
Cd175       O179   2.485       .  S
Cd175       O177   2.480       .  S
C178        O182   1.263       .  A
C178       C1509   1.493       .  S
O183        C186   1.267       .  A
O183       Cd188   2.471       .  S
C184        O193   1.263       .  A
C184        O189   1.270       .  A
C184       C1460   1.500       .  S
O185        C191   1.269       .  A
O185       Cd188   2.509       .  S
C186        O194   1.267       .  A
C186       C1488   1.495       .  S
C187        O192   1.270       .  A
C187        O190   1.266       .  A
C187       C1425   1.494       .  S
Cd188       O195   2.443       .  S
Cd188       O194   2.487       .  S
Cd188       O193   2.425       .  S
Cd188       O189   2.494       .  S
Cd188       O192   2.486       .  S
Cd188       O190   2.439       .  S
C191        O195   1.264       .  A
C191       C1712   1.499       .  S
O196        C199   1.267       .  A
O196       Cd201   2.486       .  S
C197        O206   1.265       .  A
C197        O202   1.270       .  A
C197       C1537   1.496       .  S
O198        C204   1.270       .  A
O198       Cd201   2.521       .  S
C199        O207   1.266       .  A
C199       C1572   1.497       .  S
C200        O205   1.270       .  A
C200        O203   1.265       .  A
C200       C1432   1.490       .  S
Cd201       O208   2.445       .  S
Cd201       O207   2.491       .  S
Cd201       O206   2.446       .  S
Cd201       O202   2.500       .  S
Cd201       O205   2.507       .  S
Cd201       O203   2.441       .  S
C204        O208   1.264       .  A
C204       C1397   1.502       .  S
O209        C212   1.268       .  A
O209       Cd214   2.483       .  S
C210        O219   1.263       .  A
C210        O215   1.268   1_556  A
C210       C1453   1.491       .  S
O211        C217   1.269       .  A
O211       Cd214   2.502       .  S
C212        O220   1.267       .  A
C212       C1481   1.498       .  S
C213        O218   1.268       .  A
C213        O216   1.265       .  A
C213       C1376   1.489       .  S
Cd214       O221   2.428       .  S
Cd214       O220   2.474       .  S
Cd214       O219   2.442   1_554  S
Cd214       O215   2.499       .  S
Cd214       O218   2.476       .  S
Cd214       O216   2.449       .  S
C217        O221   1.264       .  A
C217       C1964   1.487       .  S
O222        C225   1.268       .  A
O222       Cd227   2.483       .  S
C223        O232   1.263       .  A
C223        O228   1.269       .  A
C223       C1677   1.489   1_556  S
O224        C230   1.269       .  A
O224       Cd227   2.483       .  S
C225        O233   1.266       .  A
C225       C1656   1.492       .  S
C226        O231   1.268       .  A
C226        O229   1.265       .  A
C226       C1369   1.495       .  S
Cd227       O234   2.455       .  S
Cd227       O233   2.462       .  S
Cd227       O232   2.429       .  S
Cd227       O228   2.498       .  S
Cd227       O231   2.484       .  S
Cd227       O229   2.464       .  S
C230        O234   1.265       .  A
C230       C1341   1.493       .  S
O235        C238   1.268       .  A
O235       Cd240   2.486       .  S
C236        O245   1.266       .  A
C236        O241   1.267       .  A
C236       C1292   1.495       .  S
O237        C243   1.269       .  A
O237       Cd240   2.485       .  S
C238        O246   1.264       .  A
C238       C1320   1.493       .  S
C239        O244   1.269       .  A
C239        O242   1.264       .  A
C239       C1257   1.493       .  S
Cd240       O247   2.435       .  S
Cd240       O246   2.428       .  S
Cd240       O245   2.460       .  S
Cd240       O241   2.481       .  S
Cd240       O244   2.507       .  S
Cd240       O242   2.441       .  S
C243        O247   1.265       .  A
C243       C2153   1.487       .  S
O248        C251   1.268       .  A
O248       Cd253   2.498       .  S
C249        O258   1.264       .  A
C249        O254   1.269       .  A
C249       C1201   1.492       .  S
O250        C256   1.268       .  A
O250       Cd253   2.490       .  S
C251        O259   1.266       .  A
C251       C1229   1.503       .  S
C252        O257   1.268       .  A
C252        O255   1.264       .  A
C252       C1516   1.488       .  S
Cd253       O260   2.461       .  S
Cd253       O259   2.473       .  S
Cd253       O258   2.448       .  S
Cd253       O254   2.503       .  S
Cd253       O257   2.496       .  S
Cd253       O255   2.433       .  S
C256        O260   1.266       .  A
C256       C1264   1.496       .  S
O261        C264   1.268       .  A
O261       Cd266   2.502       .  S
C262        O271   1.263       .  A
C262        O267   1.269       .  A
C262       C1117   1.495       .  S
O263        C269   1.268       .  A
O263       Cd266   2.480       .  S
C264        O272   1.266       .  A
C264       C1152   1.501       .  S
C265        O270   1.268       .  A
C265        O268   1.265       .  A
C265       C1096   1.492       .  S
Cd266       O273   2.453       .  S
Cd266       O272   2.465       .  S
Cd266       O271   2.438   1_554  S
Cd266       O267   2.501   1_554  S
Cd266       O270   2.497       .  S
Cd266       O268   2.447       .  S
C269        O273   1.266       .  A
C269       C1173   1.493       .  S
O274        C277   1.266       .  A
O274       Cd279   2.471       .  S
C275        O284   1.264       .  A
C275        O280   1.269       .  A
C275       C1313   1.484   1_556  S
O276        C282   1.270       .  A
O276       Cd279   2.509       .  S
C277        O285   1.266       .  A
C277       C1285   1.490       .  S
C278        O283   1.270       .  A
C278        O281   1.263       .  A
C278       C2076   1.491       .  S
Cd279       O286   2.439       .  S
Cd279       O285   2.470       .  S
Cd279       O284   2.426       .  S
Cd279       O280   2.473       .  S
Cd279       O283   2.503       .  S
Cd279       O281   2.429       .  S
C282        O286   1.264       .  A
C282       C1180   1.492       .  S
O287        C290   1.268       .  A
O287       Cd292   2.510       .  S
C288        O297   1.264       .  A
C288        O293   1.271       .  A
C288       C1124   1.498       .  S
O289        C295   1.269       .  A
O289       Cd292   2.506       .  S
C290        O298   1.266       .  A
C290       C1145   1.502       .  S
C291        O296   1.270       .  A
C291        O294   1.265       .  A
C291       C1040   1.498       .  S
Cd292       O299   2.466       .  S
Cd292       O298   2.482       .  S
Cd292       O297   2.432       .  S
Cd292       O293   2.501       .  S
Cd292       O296   2.516       .  S
Cd292       O294   2.455       .  S
C295        O299   1.265       .  A
C295       C1061   1.495       .  S
O300        C303   1.269       .  A
O300       Cd305   2.512       .  S
C301        O310   1.263       .  A
C301        O306   1.270       .  A
C301       C1208   1.490       .  S
O302        C308   1.270       .  A
O302       Cd305   2.506       .  S
C303        O311   1.267       .  A
C303       C1236   1.502       .  S
C304        O309   1.270       .  A
C304        O307   1.264       .  A
C304       C1404   1.495       .  S
Cd305       O312   2.458       .  S
Cd305       O311   2.473       .  S
Cd305       O310   2.449       .  S
Cd305       O306   2.498       .  S
Cd305       O309   2.510       .  S
Cd305       O307   2.445       .  S
C308        O312   1.266       .  A
C308       C1068   1.507       .  S
O313        C316   1.269       .  A
O313       Cd318   2.483       .  S
C314        O323   1.266       .  A
C314        O319   1.268       .  A
C314       C1012   1.492       .  S
O315        C321   1.271       .  A
O315       Cd318   2.489       .  S
C316        O324   1.263       .  A
C316        C977   1.498       .  S
C317        O322   1.269       .  A
C317        O320   1.264       .  A
C317        C949   1.490       .  S
Cd318       O325   2.420       .  S
Cd318       O324   2.419       .  S
Cd318       O323   2.453       .  S
Cd318       O319   2.471       .  S
Cd318       O322   2.485       .  S
Cd318       O320   2.446       .  S
C321        O325   1.265       .  A
C321        C921   1.487       .  S
O326        C329   1.267       .  A
O326       Cd331   2.482       .  S
C327        O336   1.264       .  A
C327        O332   1.269       .  A
C327        C893   1.484       .  S
O328        C334   1.270       .  A
O328       Cd331   2.480       .  S
C329        O337   1.265       .  A
C329        C865   1.505       .  S
C330        O335   1.268       .  A
C330        O333   1.263       .  A
C330       C1600   1.498       .  S
Cd331       O338   2.446       .  S
Cd331       O337   2.477       .  S
Cd331       O336   2.442       .  S
Cd331       O332   2.490       .  S
Cd331       O335   2.514       .  S
Cd331       O333   2.449       .  S
C334        O338   1.266       .  A
C334        C956   1.496       .  S
O339        C342   1.267   1_554  A
O339       Cd344   2.481       .  S
C340        O349   1.266       .  A
C340        O345   1.266       .  A
C340        C844   1.492       .  S
O341        C347   1.269       .  A
O341       Cd344   2.494       .  S
C342        O350   1.264   1_556  A
C342        C809   1.486       .  S
C343        O348   1.268       .  A
C343        O346   1.264       .  A
C343        C788   1.498       .  S
Cd344       O351   2.437       .  S
Cd344       O350   2.448       .  S
Cd344       O349   2.469       .  S
Cd344       O345   2.471       .  S
Cd344       O348   2.490       .  S
Cd344       O346   2.457       .  S
C347        O351   1.265       .  A
C347       C2097   1.492       .  S
O352        C355   1.270       .  A
O352       Cd357   2.490       .  S
C353        O362   1.266       .  A
C353        O358   1.268       .  A
C353        C872   1.495       .  S
O354        C360   1.269       .  A
O354       Cd357   2.488       .  S
C355        O363   1.264       .  A
C355        C900   1.487   1_556  S
C356        O361   1.268       .  A
C356        O359   1.266       .  A
C356        C781   1.497       .  S
Cd357       O364   2.448       .  S
Cd357       O363   2.442       .  S
Cd357       O362   2.471       .  S
Cd357       O358   2.499       .  S
Cd357       O361   2.492       .  S
Cd357       O359   2.453       .  S
C360        O364   1.265       .  A
C360       C1348   1.492       .  S
O365        C368   1.269       .  A
O365       Cd370   2.488       .  S
C366        O375   1.263       .  A
C366        O371   1.271       .  A
C366        C816   1.495       .  S
O367        C373   1.268       .  A
O367       Cd370   2.481       .  S
C368        O376   1.265       .  A
C368        C837   1.494       .  S
C369        O374   1.269       .  A
C369        O372   1.266       .  A
C369       C2384   1.488       .  S
Cd370       O377   2.432       .  S
Cd370       O376   2.456       .  S
Cd370       O375   2.424       .  S
Cd370       O371   2.499       .  S
Cd370       O374   2.476       .  S
Cd370       O372   2.424       .  S
C373        O377   1.265       .  A
C373        C760   1.487       .  S
O378        C381   1.266       .  A
O378       Cd383   2.477       .  S
C379        O388   1.265       .  A
C379        O384   1.269       .  A
C379        C984   1.491       .  S
O380        C386   1.269       .  A
O380       Cd383   2.501       .  S
C381        O389   1.267       .  A
C381       C1005   1.497       .  S
C382        O387   1.269       .  A
C382        O385   1.264       .  A
C382        C725   1.492       .  S
Cd383       O390   2.432       .  S
Cd383       O389   2.479       .  S
Cd383       O388   2.442       .  S
Cd383       O384   2.479       .  S
Cd383       O387   2.506       .  S
Cd383       O385   2.426       .  S
C386        O390   1.264       .  A
C386        C753   1.489       .  S
O391        C394   1.267       .  A
O391       Cd396   2.476       .  S
C392        O401   1.265       .  A
C392        O397   1.269       .  A
C392        C676   1.496   1_556  S
O393        C399   1.269       .  A
O393       Cd396   2.530       .  S
C394        O402   1.266       .  A
C394        C704   1.495       .  S
C395        O400   1.270       .  A
C395        O398   1.265       .  A
C395        C641   1.493       .  S
Cd396       O403   2.451       .  S
Cd396       O402   2.487       .  S
Cd396       O401   2.440       .  S
Cd396       O397   2.499       .  S
Cd396       O400   2.501       .  S
Cd396       O398   2.447       .  S
C399        O403   1.264       .  A
C399       C1873   1.503       .  S
O404        C407   1.270   1_554  A
O404       Cd409   2.492       .  S
C405        O414   1.266       .  A
C405        O410   1.268       .  A
C405        C613   1.490       .  S
O406        C412   1.271       .  A
O406       Cd409   2.502       .  S
C407        O415   1.265       .  A
C407        C585   1.489       .  S
C408        O413   1.271       .  A
C408        O411   1.265       .  A
C408       C1089   1.497       .  S
Cd409       O416   2.456       .  S
Cd409       O415   2.426   1_554  S
Cd409       O414   2.468       .  S
Cd409       O410   2.484       .  S
Cd409       O413   2.515       .  S
Cd409       O411   2.446       .  S
C412        O416   1.264       .  A
C412        C648   1.503       .  S
O417        C420   1.267       .  A
O417       Cd422   2.481       .  S
C418        O427   1.263       .  A
C418        O423   1.268       .  A
C418        C669   1.491       .  S
O419        C425   1.269       .  A
O419       Cd422   2.510       .  S
C420        O428   1.267       .  A
C420        C697   1.496       .  S
C421        O426   1.268       .  A
C421        O424   1.265       .  A
C421        C564   1.493       .  S
Cd422       O429   2.441       .  S
Cd422       O428   2.471       .  S
Cd422       O427   2.426       .  S
Cd422       O423   2.502       .  S
Cd422       O426   2.497       .  S
Cd422       O424   2.451       .  S
C425        O429   1.264       .  A
C425       C1824   1.502       .  S
O430        C433   1.266       .  A
O430       Cd435   2.477       .  S
C431        O440   1.264       .  A
C431        O436   1.268       .  A
C431        C508   1.483       .  S
O432        C438   1.268       .  A
O432       Cd435   2.500       .  S
C433        O441   1.266       .  A
C433        C529   1.492       .  S
C434        O439   1.268       .  A
C434        O437   1.265       .  A
C434        C557   1.498       .  S
Cd435       O442   2.449       .  S
Cd435       O441   2.475       .  S
Cd435       O440   2.428       .  S
Cd435       O436   2.501       .  S
Cd435       O439   2.494       .  S
Cd435       O437   2.460       .  S
C438        O442   1.264       .  A
C438        C928   1.496       .  S
O443        C446   1.268       .  A
O443       Cd448   2.506       .  S
C444        O453   1.264       .  A
C444        O449   1.270       .  A
C444        C592   1.488       .  S
O445        C451   1.270       .  A
O445       Cd448   2.524       .  S
C446        O454   1.266       .  A
C446        C620   1.503       .  S
C447        O452   1.270       .  A
C447        O450   1.266       .  A
C447        C473   1.500       .  S
Cd448       O455   2.448       .  S
Cd448       O454   2.478       .  S
Cd448       O453   2.438       .  S
Cd448       O449   2.488       .  S
Cd448       O452   2.495       .  S
Cd448       O450   2.471       .  S
C451        O455   1.264       .  A
C451       C1033   1.497       .  S
O456        C459   1.266       .  A
O456       Cd461   2.471       .  S
C457        O466   1.263       .  A
C457        O462   1.268       .  A
C457        C501   1.482       .  S
O458        C464   1.267       .  A
O458       Cd461   2.510       .  S
C459        O467   1.266       .  A
C459        C536   1.493       .  S
C460        O465   1.269       .  A
C460        O463   1.266       .  A
C460        C480   1.491       .  S
Cd461       O468   2.451       .  S
Cd461       O467   2.480       .  S
Cd461       O466   2.430       .  S
Cd461       O462   2.489       .  S
Cd461       O465   2.464       .  S
Cd461       O463   2.458       .  S
C464        O468   1.263       .  A
C464        C732   1.497       .  S
C469        C470   1.409       .  A
C469        C474   1.413       .  A
C469        C487   1.451       .  S
C470        C475   1.501       .  S
C470        C471   1.410       .  A
C471        C472   1.415       .  A
C471        C476   1.451       .  S
C472        C473   1.419       .  A
C472        C488   1.450       .  S
C473        C474   1.419       .  A
C474        C477   1.450       .  S
C475        C478   1.410       .  A
C475        C482   1.412       .  A
C476        N493   1.157       .  T
C477        N495   1.157       .  T
C478        C479   1.412       .  A
C478        C483   1.450       .  S
C479        C480   1.417       .  A
C479        C485   1.452       .  S
C480        C481   1.415       .  A
C481        C482   1.413       .  A
C481        C484   1.451       .  S
C482        C486   1.450       .  S
C483        N490   1.157       .  T
C484        N491   1.157       .  T
C485        N489   1.157       .  T
C486        N492   1.157       .  T
C487        N496   1.157       .  T
C488        N494   1.157       .  T
C497        C498   1.412   1_655  A
C497        C502   1.411   1_655  A
C497        C515   1.450       .  S
C498        C503   1.495   1_455  S
C498        C499   1.409       .  A
C499        C500   1.410       .  A
C499        C504   1.450       .  S
C500        C501   1.415       .  A
C500        C516   1.452       .  S
C501        C502   1.412       .  A
C502        C505   1.451   1_455  S
C503        C506   1.412   1_655  A
C503        C510   1.409       .  A
C504        N521   1.157       .  T
C505        N523   1.157       .  T
C506        C507   1.413       .  A
C506        C511   1.450       .  S
C507        C508   1.413   1_455  A
C507        C513   1.450       .  S
C508        C509   1.414       .  A
C509        C510   1.408       .  A
C509        C512   1.452       .  S
C510        C514   1.450       .  S
C511        N518   1.157       .  T
C512        N519   1.157       .  T
C513        N517   1.157       .  T
C514        N520   1.157       .  T
C515        N524   1.157       .  T
C516        N522   1.158       .  T
C525        C526   1.411   1_455  A
C525        C530   1.411   1_455  A
C525        C543   1.452       .  S
C526        C531   1.500   1_654  S
C526        C527   1.411       .  A
C527        C528   1.414       .  A
C527        C532   1.450   1_554  S
C528        C529   1.417       .  A
C528        C544   1.451       .  S
C529        C530   1.416       .  A
C530        C533   1.451   1_655  S
C531        C534   1.410       .  A
C531        C538   1.410   1_455  A
C532        N549   1.157       .  T
C533        N551   1.157       .  T
C534        C535   1.413       .  A
C534        C539   1.450       .  S
C535        C536   1.417       .  A
C535        C541   1.451       .  S
C536        C537   1.417       .  A
C537        C538   1.412   1_455  A
C537        C540   1.451   1_455  S
C538        C542   1.451       .  S
C539        N546   1.157   1_556  T
C540        N547   1.157       .  T
C541        N545   1.157       .  T
C542        N548   1.157       .  T
C543        N552   1.157       .  T
C544        N550   1.157       .  T
C553        C554   1.411       .  A
C553        C558   1.413       .  A
C553        C571   1.451       .  S
C554        C559   1.501       .  S
C554        C555   1.409       .  A
C555        C556   1.415       .  A
C555        C560   1.450       .  S
C556        C557   1.420       .  A
C556        C572   1.450       .  S
C557        C558   1.418       .  A
C558        C561   1.451       .  S
C559        C562   1.410       .  A
C559        C566   1.411       .  A
C560        N577   1.157       .  T
C561        N579   1.157       .  T
C562        C563   1.412       .  A
C562        C567   1.450       .  S
C563        C564   1.416       .  A
C563        C569   1.451       .  S
C564        C565   1.418       .  A
C565        C566   1.414       .  A
C565        C568   1.451       .  S
C566        C570   1.450       .  S
C567        N574   1.157       .  T
C568        N575   1.157       .  T
C569        N573   1.157       .  T
C570        N576   1.157       .  T
C571        N580   1.157       .  T
C572        N578   1.157       .  T
C581        C582   1.410       .  A
C581        C586   1.409       .  A
C581        C599   1.451       .  S
C582        C587   1.501       .  S
C582        C583   1.414       .  A
C583        C584   1.414       .  A
C583        C588   1.450       .  S
C584        C585   1.414       .  A
C584        C600   1.450       .  S
C585        C586   1.416       .  A
C586        C589   1.452       .  S
C587        C590   1.411       .  A
C587        C594   1.413       .  A
C588        N605   1.157       .  T
C589        N607   1.157       .  T
C590        C591   1.411       .  A
C590        C595   1.451       .  S
C591        C592   1.416       .  A
C591        C597   1.452       .  S
C592        C593   1.413       .  A
C593        C594   1.413       .  A
C593        C596   1.451       .  S
C594        C598   1.451       .  S
C595        N602   1.157       .  T
C596        N603   1.157       .  T
C597        N601   1.157       .  T
C598        N604   1.157       .  T
C599        N608   1.157       .  T
C600        N606   1.157       .  T
C609        C610   1.412       .  A
C609        C614   1.414       .  A
C609        C627   1.449       .  S
C610        C615   1.504       .  S
C610        C611   1.413       .  A
C611        C612   1.413       .  A
C611        C616   1.450       .  S
C612        C613   1.415       .  A
C612        C628   1.451       .  S
C613        C614   1.413       .  A
C614        C617   1.450       .  S
C615        C618   1.411       .  A
C615        C622   1.410       .  A
C616        N633   1.157       .  T
C617        N635   1.157       .  T
C618        C619   1.417       .  A
C618        C623   1.450       .  S
C619        C620   1.419       .  A
C619        C625   1.450       .  S
C620        C621   1.420       .  A
C621        C622   1.413       .  A
C621        C624   1.451       .  S
C622        C626   1.452       .  S
C623        N630   1.157       .  T
C624        N631   1.157       .  T
C625        N629   1.157       .  T
C626        N632   1.157       .  T
C627        N636   1.157       .  T
C628        N634   1.157       .  T
C637        C638   1.412       .  A
C637        C642   1.415       .  A
C637        C655   1.450       .  S
C638        C643   1.503   1_655  S
C638        C639   1.411   1_556  A
C639        C640   1.413   1_554  A
C639        C644   1.451       .  S
C640        C641   1.418       .  A
C640        C656   1.453   1_556  S
C641        C642   1.415       .  A
C642        C645   1.450       .  S
C643        C646   1.409       .  A
C643        C650   1.410   1_556  A
C644        N661   1.157       .  T
C645        N663   1.157       .  T
C646        C647   1.413       .  A
C646        C651   1.452       .  S
C647        C648   1.423   1_556  A
C647        C653   1.452       .  S
C648        C649   1.419       .  A
C649        C650   1.415       .  A
C649        C652   1.450       .  S
C650        C654   1.450       .  S
C651        N658   1.157       .  T
C652        N659   1.157       .  T
C653        N657   1.158       .  T
C654        N660   1.157   1_455  T
C655        N664   1.157   1_655  T
C656        N662   1.158       .  T
C665        C666   1.412       .  A
C665        C670   1.414       .  A
C665        C683   1.451       .  S
C666        C671   1.499       .  S
C666        C667   1.410       .  A
C667        C668   1.409       .  A
C667        C672   1.451       .  S
C668        C669   1.418       .  A
C668        C684   1.452       .  S
C669        C670   1.416       .  A
C670        C673   1.450       .  S
C671        C674   1.409       .  A
C671        C678   1.411       .  A
C672        N689   1.157       .  T
C673        N691   1.157       .  T
C674        C675   1.410       .  A
C674        C679   1.451       .  S
C675        C676   1.419       .  A
C675        C681   1.451       .  S
C676        C677   1.419       .  A
C677        C678   1.414       .  A
C677        C680   1.450       .  S
C678        C682   1.451       .  S
C679        N686   1.157       .  T
C680        N687   1.157   1_554  T
C681        N685   1.157       .  T
C682        N688   1.157       .  T
C683        N692   1.157       .  T
C684        N690   1.157       .  T
C693        C694   1.411       .  A
C693        C698   1.414       .  A
C693        C711   1.450       .  S
C694        C699   1.504       .  S
C694        C695   1.412       .  A
C695        C696   1.414       .  A
C695        C700   1.451       .  S
C696        C697   1.418       .  A
C696        C712   1.451       .  S
C697        C698   1.417       .  A
C698        C701   1.451       .  S
C699        C702   1.411       .  A
C699        C706   1.412       .  A
C700        N717   1.157       .  T
C701        N719   1.157       .  T
C702        C703   1.412       .  A
C702        C707   1.451       .  S
C703        C704   1.417       .  A
C703        C709   1.451       .  S
C704        C705   1.417       .  A
C705        C706   1.415       .  A
C705        C708   1.451       .  S
C706        C710   1.450       .  S
C707        N714   1.157       .  T
C708        N715   1.157       .  T
C709        N713   1.157       .  T
C710        N716   1.157       .  T
C711        N720   1.157       .  T
C712        N718   1.157       .  T
C721        C722   1.410       .  A
C721        C726   1.409       .  A
C721        C739   1.451       .  S
C722        C727   1.499       .  S
C722        C723   1.410       .  A
C723        C724   1.415       .  A
C723        C728   1.450       .  S
C724        C725   1.417       .  A
C724        C740   1.450       .  S
C725        C726   1.417       .  A
C726        C729   1.452       .  S
C727        C730   1.409       .  A
C727        C734   1.409       .  A
C728        N745   1.157       .  T
C729        N747   1.157       .  T
C730        C731   1.411       .  A
C730        C735   1.451       .  S
C731        C732   1.419       .  A
C731        C737   1.452       .  S
C732        C733   1.418       .  A
C733        C734   1.415       .  A
C733        C736   1.450       .  S
C734        C738   1.450       .  S
C735        N742   1.157       .  T
C736        N743   1.157       .  T
C737        N741   1.157       .  T
C738        N744   1.157       .  T
C739        N748   1.157       .  T
C740        N746   1.157       .  T
C749        C750   1.408       .  A
C749        C754   1.408       .  A
C749        C767   1.452       .  S
C750        C755   1.495       .  S
C750        C751   1.411       .  A
C751        C752   1.414       .  A
C751        C756   1.450       .  S
C752        C753   1.414       .  A
C752        C768   1.449       .  S
C753        C754   1.418       .  A
C754        C757   1.452       .  S
C755        C758   1.409       .  A
C755        C762   1.411       .  A
C756        N773   1.157       .  T
C757        N775   1.157       .  T
C758        C759   1.408       .  A
C758        C763   1.452       .  S
C759        C760   1.417       .  A
C759        C765   1.453       .  S
C760        C761   1.415       .  A
C761        C762   1.414       .  A
C761        C764   1.450       .  S
C762        C766   1.449       .  S
C763        N770   1.157       .  T
C764        N771   1.157       .  T
C765        N769   1.158       .  T
C766        N772   1.157       .  T
C767        N776   1.157       .  T
C768        N774   1.157       .  T
C777        C778   1.410       .  A
C777        C782   1.412       .  A
C777        C795   1.451   1_655  S
C778        C783   1.500   1_656  S
C778        C779   1.409       .  A
C779        C780   1.414       .  A
C779        C784   1.451   1_556  S
C780        C781   1.420       .  A
C780        C796   1.451       .  S
C781        C782   1.417       .  A
C782        C785   1.451       .  S
C783        C786   1.409   1_554  A
C783        C790   1.410       .  A
C784        N801   1.157       .  T
C785        N803   1.157       .  T
C786        C787   1.414   1_556  A
C786        C791   1.450       .  S
C787        C788   1.420       .  A
C787        C793   1.451       .  S
C788        C789   1.419       .  A
C789        C790   1.412       .  A
C789        C792   1.451       .  S
C790        C794   1.452   1_455  S
C791        N798   1.157       .  T
C792        N799   1.158       .  T
C793        N797   1.157   1_554  T
C794        N800   1.157       .  T
C795        N804   1.157       .  T
C796        N802   1.157   1_556  T
C805        C806   1.411       .  A
C805        C810   1.411       .  A
C805        C823   1.451       .  S
C806        C811   1.497       .  S
C806        C807   1.411       .  A
C807        C808   1.410       .  A
C807        C812   1.451       .  S
C808        C809   1.415       .  A
C808        C824   1.452       .  S
C809        C810   1.415       .  A
C810        C813   1.451       .  S
C811        C814   1.411       .  A
C811        C818   1.408       .  A
C812        N829   1.157       .  T
C813        N831   1.157       .  T
C814        C815   1.413       .  A
C814        C819   1.451       .  S
C815        C816   1.417       .  A
C815        C821   1.450       .  S
C816        C817   1.421       .  A
C817        C818   1.410       .  A
C817        C820   1.452       .  S
C818        C822   1.451       .  S
C819        N826   1.157       .  T
C820        N827   1.158       .  T
C821        N825   1.157       .  T
C822        N828   1.157       .  T
C823        N832   1.157       .  T
C824        N830   1.157       .  T
C833        C834   1.410       .  A
C833        C838   1.413       .  A
C833        C851   1.450       .  S
C834        C839   1.499       .  S
C834        C835   1.409       .  A
C835        C836   1.412       .  A
C835        C840   1.451       .  S
C836        C837   1.419       .  A
C836        C852   1.452       .  S
C837        C838   1.417       .  A
C838        C841   1.450       .  S
C839        C842   1.410       .  A
C839        C846   1.410       .  A
C840        N857   1.157       .  T
C841        N859   1.157       .  T
C842        C843   1.411       .  A
C842        C847   1.451       .  S
C843        C844   1.417       .  A
C843        C849   1.451       .  S
C844        C845   1.417       .  A
C845        C846   1.413       .  A
C845        C848   1.451       .  S
C846        C850   1.450       .  S
C847        N854   1.157       .  T
C848        N855   1.157       .  T
C849        N853   1.157       .  T
C850        N856   1.157       .  T
C851        N860   1.157       .  T
C852        N858   1.157       .  T
C861        C862   1.409       .  A
C861        C866   1.414       .  A
C861        C879   1.451       .  S
C862        C867   1.502       .  S
C862        C863   1.409       .  A
C863        C864   1.414       .  A
C863        C868   1.451       .  S
C864        C865   1.423       .  A
C864        C880   1.451       .  S
C865        C866   1.421       .  A
C866        C869   1.451       .  S
C867        C870   1.410       .  A
C867        C874   1.411       .  A
C868        N885   1.157       .  T
C869        N887   1.157       .  T
C870        C871   1.413       .  A
C870        C875   1.451       .  S
C871        C872   1.418       .  A
C871        C877   1.451       .  S
C872        C873   1.415       .  A
C873        C874   1.415       .  A
C873        C876   1.450       .  S
C874        C878   1.450       .  S
C875        N882   1.157       .  T
C876        N883   1.157       .  T
C877        N881   1.157       .  T
C878        N884   1.157       .  T
C879        N888   1.157       .  T
C880        N886   1.158       .  T
C889        C890   1.411       .  A
C889        C894   1.411       .  A
C889        C907   1.450       .  S
C890        C895   1.498       .  S
C890        C891   1.412       .  A
C891        C892   1.412       .  A
C891        C896   1.450       .  S
C892        C893   1.412       .  A
C892        C908   1.450       .  S
C893        C894   1.415       .  A
C894        C897   1.452       .  S
C895        C898   1.412       .  A
C895        C902   1.410       .  A
C896        N913   1.157       .  T
C897        N915   1.158       .  T
C898        C899   1.412       .  A
C898        C903   1.450       .  S
C899        C900   1.413       .  A
C899        C905   1.451       .  S
C900        C901   1.416       .  A
C901        C902   1.412       .  A
C901        C904   1.452       .  S
C902        C906   1.451       .  S
C903        N910   1.157       .  T
C904        N911   1.158       .  T
C905        N909   1.157   1_554  T
C906        N912   1.157       .  T
C907        N916   1.157       .  T
C908        N914   1.157       .  T
C917        C918   1.411       .  A
C917        C922   1.413       .  A
C917        C935   1.450       .  S
C918        C923   1.498       .  S
C918        C919   1.410       .  A
C919        C920   1.410       .  A
C919        C924   1.451       .  S
C920        C921   1.416       .  A
C920        C936   1.452       .  S
C921        C922   1.415       .  A
C922        C925   1.451       .  S
C923        C926   1.409       .  A
C923        C930   1.409       .  A
C924        N941   1.157       .  T
C925        N943   1.157       .  T
C926        C927   1.414       .  A
C926        C931   1.450       .  S
C927        C928   1.418       .  A
C927        C933   1.450       .  S
C928        C929   1.419       .  A
C929        C930   1.410       .  A
C929        C932   1.452       .  S
C930        C934   1.452       .  S
C931        N938   1.157       .  T
C932        N939   1.157       .  T
C933        N937   1.157       .  T
C934        N940   1.157       .  T
C935        N944   1.157       .  T
C936        N942   1.157       .  T
C945        C946   1.411       .  A
C945        C950   1.412       .  A
C945        C963   1.451       .  S
C946        C951   1.499       .  S
C946        C947   1.410       .  A
C947        C948   1.412       .  A
C947        C952   1.450       .  S
C948        C949   1.416       .  A
C948        C964   1.451       .  S
C949        C950   1.417       .  A
C950        C953   1.451       .  S
C951        C954   1.409       .  A
C951        C958   1.410       .  A
C952        N969   1.157       .  T
C953        N971   1.157       .  T
C954        C955   1.412       .  A
C954        C959   1.451       .  S
C955        C956   1.419       .  A
C955        C961   1.451       .  S
C956        C957   1.419       .  A
C957        C958   1.412       .  A
C957        C960   1.451       .  S
C958        C962   1.451       .  S
C959        N966   1.157       .  T
C960        N967   1.157       .  T
C961        N965   1.157       .  T
C962        N968   1.157       .  T
C963        N972   1.157       .  T
C964        N970   1.157       .  T
C973        C974   1.408   1_655  A
C973        C978   1.409       .  A
C973        C991   1.452       .  S
C974        C979   1.497       .  S
C974        C975   1.410       .  A
C975        C976   1.412       .  A
C975        C980   1.451       .  S
C976        C977   1.419   1_455  A
C976        C992   1.451       .  S
C977        C978   1.423       .  A
C978        C981   1.453       .  S
C979        C982   1.410       .  A
C979        C986   1.411       .  A
C980        N997   1.157       .  T
C981        N999   1.158       .  T
C982        C983   1.411       .  A
C982        C987   1.451       .  S
C983        C984   1.418       .  A
C983        C989   1.452       .  S
C984        C985   1.417       .  A
C985        C986   1.411       .  A
C985        C988   1.451       .  S
C986        C990   1.451   1_455  S
C987        N994   1.157       .  T
C988        N995   1.157       .  T
C989        N993   1.158       .  T
C990        N996   1.157       .  T
C991       N1000   1.157       .  T
C992        N998   1.157       .  T
C1001      C1002   1.411       .  A
C1001      C1006   1.413       .  A
C1001      C1019   1.451       .  S
C1002      C1007   1.502   1_456  S
C1002      C1003   1.411   1_455  A
C1003      C1004   1.413   1_655  A
C1003      C1008   1.451       .  S
C1004      C1005   1.419       .  A
C1004      C1020   1.451   1_455  S
C1005      C1006   1.418       .  A
C1006      C1009   1.451       .  S
C1007      C1010   1.411       .  A
C1007      C1014   1.412   1_655  A
C1008      N1025   1.157       .  T
C1009      N1027   1.157       .  T
C1010      C1011   1.413       .  A
C1010      C1015   1.450   1_554  S
C1011      C1012   1.417       .  A
C1011      C1017   1.451       .  S
C1012      C1013   1.417   1_655  A
C1013      C1014   1.412       .  A
C1013      C1016   1.451       .  S
C1014      C1018   1.451       .  S
C1015      N1022   1.157       .  T
C1016      N1023   1.157       .  T
C1017      N1021   1.157       .  T
C1018      N1024   1.157       .  T
C1019      N1028   1.157   1_556  T
C1020      N1026   1.157       .  T
C1029      C1030   1.413       .  A
C1029      C1034   1.417       .  A
C1029      C1047   1.450       .  S
C1030      C1035   1.507       .  S
C1030      C1031   1.412       .  A
C1031      C1032   1.412       .  A
C1031      C1036   1.451       .  S
C1032      C1033   1.417       .  A
C1032      C1048   1.452       .  S
C1033      C1034   1.416       .  A
C1034      C1037   1.450       .  S
C1035      C1038   1.413       .  A
C1035      C1042   1.412       .  A
C1036      N1053   1.157       .  T
C1037      N1055   1.157       .  T
C1038      C1039   1.417       .  A
C1038      C1043   1.450       .  S
C1039      C1040   1.417       .  A
C1039      C1045   1.450       .  S
C1040      C1041   1.417       .  A
C1041      C1042   1.413       .  A
C1041      C1044   1.451       .  S
C1042      C1046   1.451       .  S
C1043      N1050   1.157       .  T
C1044      N1051   1.157       .  T
C1045      N1049   1.157       .  T
C1046      N1052   1.157       .  T
C1047      N1056   1.157       .  T
C1048      N1054   1.158       .  T
C1057      C1058   1.412       .  A
C1057      C1062   1.416       .  A
C1057      C1075   1.449       .  S
C1058      C1063   1.505       .  S
C1058      C1059   1.411       .  A
C1059      C1060   1.414       .  A
C1059      C1064   1.451       .  S
C1060      C1061   1.418       .  A
C1060      C1076   1.452       .  S
C1061      C1062   1.415       .  A
C1062      C1065   1.450       .  S
C1063      C1066   1.411       .  A
C1063      C1070   1.409       .  A
C1064      N1081   1.157       .  T
C1065      N1083   1.157       .  T
C1066      C1067   1.418       .  A
C1066      C1071   1.450       .  S
C1067      C1068   1.421       .  A
C1067      C1073   1.450       .  S
C1068      C1069   1.423       .  A
C1069      C1070   1.413       .  A
C1069      C1072   1.452       .  S
C1070      C1074   1.452       .  S
C1071      N1078   1.157       .  T
C1072      N1079   1.157       .  T
C1073      N1077   1.158       .  T
C1074      N1080   1.157       .  T
C1075      N1084   1.157       .  T
C1076      N1082   1.158       .  T
C1085      C1086   1.411       .  A
C1085      C1090   1.417       .  A
C1085      C1103   1.450       .  S
C1086      C1091   1.502       .  S
C1086      C1087   1.410       .  A
C1087      C1088   1.411       .  A
C1087      C1092   1.452   1_554  S
C1088      C1089   1.418       .  A
C1088      C1104   1.452   1_554  S
C1089      C1090   1.418       .  A
C1090      C1093   1.450       .  S
C1091      C1094   1.412       .  A
C1091      C1098   1.411       .  A
C1092      N1109   1.157       .  T
C1093      N1111   1.157       .  T
C1094      C1095   1.414       .  A
C1094      C1099   1.450       .  S
C1095      C1096   1.416       .  A
C1095      C1101   1.450       .  S
C1096      C1097   1.415       .  A
C1097      C1098   1.411       .  A
C1097      C1100   1.452       .  S
C1098      C1102   1.450       .  S
C1099      N1106   1.157   1_554  T
C1100      N1107   1.157       .  T
C1101      N1105   1.157   1_554  T
C1102      N1108   1.157       .  T
C1103      N1112   1.157       .  T
C1104      N1110   1.157       .  T
C1113      C1114   1.412       .  A
C1113      C1118   1.412       .  A
C1113      C1131   1.451       .  S
C1114      C1119   1.501       .  S
C1114      C1115   1.410       .  A
C1115      C1116   1.412       .  A
C1115      C1120   1.451       .  S
C1116      C1117   1.419       .  A
C1116      C1132   1.452       .  S
C1117      C1118   1.416       .  A
C1118      C1121   1.451       .  S
C1119      C1122   1.411       .  A
C1119      C1126   1.409       .  A
C1120      N1137   1.157       .  T
C1121      N1139   1.157       .  T
C1122      C1123   1.413       .  A
C1122      C1127   1.451       .  S
C1123      C1124   1.418       .  A
C1123      C1129   1.451       .  S
C1124      C1125   1.421       .  A
C1125      C1126   1.412       .  A
C1125      C1128   1.452       .  S
C1126      C1130   1.451       .  S
C1127      N1134   1.158       .  T
C1128      N1135   1.158       .  T
C1129      N1133   1.157       .  T
C1130      N1136   1.157       .  T
C1131      N1140   1.157       .  T
C1132      N1138   1.158       .  T
C1141      C1142   1.411       .  A
C1141      C1146   1.414       .  A
C1141      C1159   1.451       .  S
C1142      C1147   1.506       .  S
C1142      C1143   1.412       .  A
C1143      C1144   1.417       .  A
C1143      C1148   1.450       .  S
C1144      C1145   1.418       .  A
C1144      C1160   1.450       .  S
C1145      C1146   1.419       .  A
C1146      C1149   1.451       .  S
C1147      C1150   1.411       .  A
C1147      C1154   1.411       .  A
C1148      N1165   1.157       .  T
C1149      N1167   1.157       .  T
C1150      C1151   1.416       .  A
C1150      C1155   1.450       .  S
C1151      C1152   1.418       .  A
C1151      C1157   1.450       .  S
C1152      C1153   1.420       .  A
C1153      C1154   1.413       .  A
C1153      C1156   1.452       .  S
C1154      C1158   1.451       .  S
C1155      N1162   1.157       .  T
C1156      N1163   1.157       .  T
C1157      N1161   1.158       .  T
C1158      N1164   1.157       .  T
C1159      N1168   1.157       .  T
C1160      N1166   1.158       .  T
C1169      C1170   1.410       .  A
C1169      C1174   1.411       .  A
C1169      C1187   1.451       .  S
C1170      C1175   1.501       .  S
C1170      C1171   1.412   1_556  A
C1171      C1172   1.413       .  A
C1171      C1176   1.450       .  S
C1172      C1173   1.416       .  A
C1172      C1188   1.451       .  S
C1173      C1174   1.418   1_554  A
C1174      C1177   1.452       .  S
C1175      C1178   1.410       .  A
C1175      C1182   1.413       .  A
C1176      N1193   1.157       .  T
C1177      N1195   1.158       .  T
C1178      C1179   1.410       .  A
C1178      C1183   1.451   1_556  S
C1179      C1180   1.417       .  A
C1179      C1185   1.452   1_556  S
C1180      C1181   1.415       .  A
C1181      C1182   1.415       .  A
C1181      C1184   1.450       .  S
C1182      C1186   1.450       .  S
C1183      N1190   1.157       .  T
C1184      N1191   1.157       .  T
C1185      N1189   1.157       .  T
C1186      N1192   1.157       .  T
C1187      N1196   1.157       .  T
C1188      N1194   1.157       .  T
C1197      C1198   1.410       .  A
C1197      C1202   1.411       .  A
C1197      C1215   1.451       .  S
C1198      C1203   1.502       .  S
C1198      C1199   1.413       .  A
C1199      C1200   1.415       .  A
C1199      C1204   1.450       .  S
C1200      C1201   1.416       .  A
C1200      C1216   1.450       .  S
C1201      C1202   1.417       .  A
C1202      C1205   1.451       .  S
C1203      C1206   1.413       .  A
C1203      C1210   1.411       .  A
C1204      N1221   1.157       .  T
C1205      N1223   1.157       .  T
C1206      C1207   1.414       .  A
C1206      C1211   1.450       .  S
C1207      C1208   1.414       .  A
C1207      C1213   1.451       .  S
C1208      C1209   1.416       .  A
C1209      C1210   1.412       .  A
C1209      C1212   1.451       .  S
C1210      C1214   1.451       .  S
C1211      N1218   1.157       .  T
C1212      N1219   1.157       .  T
C1213      N1217   1.157       .  T
C1214      N1220   1.157       .  T
C1215      N1224   1.157       .  T
C1216      N1222   1.157       .  T
C1225      C1226   1.411   1_554  A
C1225      C1230   1.416       .  A
C1225      C1243   1.450       .  S
C1226      C1231   1.506       .  S
C1226      C1227   1.410   1_556  A
C1227      C1228   1.415       .  A
C1227      C1232   1.451   1_554  S
C1228      C1229   1.421       .  A
C1228      C1244   1.452       .  S
C1229      C1230   1.419       .  A
C1230      C1233   1.450       .  S
C1231      C1234   1.410       .  A
C1231      C1238   1.412       .  A
C1232      N1249   1.157       .  T
C1233      N1251   1.158       .  T
C1234      C1235   1.414       .  A
C1234      C1239   1.451       .  S
C1235      C1236   1.419       .  A
C1235      C1241   1.451       .  S
C1236      C1237   1.418       .  A
C1237      C1238   1.418       .  A
C1237      C1240   1.450       .  S
C1238      C1242   1.450       .  S
C1239      N1246   1.157   1_556  T
C1240      N1247   1.157       .  T
C1241      N1245   1.157       .  T
C1242      N1248   1.157       .  T
C1243      N1252   1.157       .  T
C1244      N1250   1.157       .  T
C1253      C1254   1.409       .  A
C1253      C1258   1.410       .  A
C1253      C1271   1.451       .  S
C1254      C1259   1.500       .  S
C1254      C1255   1.412       .  A
C1255      C1256   1.416       .  A
C1255      C1260   1.450       .  S
C1256      C1257   1.415       .  A
C1256      C1272   1.450       .  S
C1257      C1258   1.418       .  A
C1258      C1261   1.452       .  S
C1259      C1262   1.410       .  A
C1259      C1266   1.410       .  A
C1260      N1277   1.157       .  T
C1261      N1279   1.158       .  T
C1262      C1263   1.411       .  A
C1262      C1267   1.452       .  S
C1263      C1264   1.419       .  A
C1263      C1269   1.451       .  S
C1264      C1265   1.418       .  A
C1265      C1266   1.415       .  A
C1265      C1268   1.450       .  S
C1266      C1270   1.450       .  S
C1267      N1274   1.157       .  T
C1268      N1275   1.157       .  T
C1269      N1273   1.157       .  T
C1270      N1276   1.157       .  T
C1271      N1280   1.157       .  T
C1272      N1278   1.157       .  T
C1281      C1282   1.410       .  A
C1281      C1286   1.411       .  A
C1281      C1299   1.451       .  S
C1282      C1287   1.499       .  S
C1282      C1283   1.410       .  A
C1283      C1284   1.413       .  A
C1283      C1288   1.450       .  S
C1284      C1285   1.415       .  A
C1284      C1300   1.451       .  S
C1285      C1286   1.416       .  A
C1286      C1289   1.451       .  S
C1287      C1290   1.410       .  A
C1287      C1294   1.409       .  A
C1288      N1305   1.157       .  T
C1289      N1307   1.157       .  T
C1290      C1291   1.413       .  A
C1290      C1295   1.451       .  S
C1291      C1292   1.419       .  A
C1291      C1297   1.451       .  S
C1292      C1293   1.418       .  A
C1293      C1294   1.412       .  A
C1293      C1296   1.451       .  S
C1294      C1298   1.451       .  S
C1295      N1302   1.157       .  T
C1296      N1303   1.157       .  T
C1297      N1301   1.157       .  T
C1298      N1304   1.157       .  T
C1299      N1308   1.157       .  T
C1300      N1306   1.157       .  T
C1309      C1310   1.411       .  A
C1309      C1314   1.410       .  A
C1309      C1327   1.451       .  S
C1310      C1315   1.494       .  S
C1310      C1311   1.410       .  A
C1311      C1312   1.409       .  A
C1311      C1316   1.451       .  S
C1312      C1313   1.416       .  A
C1312      C1328   1.452       .  S
C1313      C1314   1.415       .  A
C1314      C1317   1.451       .  S
C1315      C1318   1.410       .  A
C1315      C1322   1.407       .  A
C1316      N1333   1.157       .  T
C1317      N1335   1.157   1_554  T
C1318      C1319   1.412       .  A
C1318      C1323   1.451       .  S
C1319      C1320   1.418       .  A
C1319      C1325   1.450       .  S
C1320      C1321   1.421       .  A
C1321      C1322   1.409       .  A
C1321      C1324   1.452       .  S
C1322      C1326   1.452       .  S
C1323      N1330   1.157       .  T
C1324      N1331   1.157       .  T
C1325      N1329   1.157       .  T
C1326      N1332   1.157       .  T
C1327      N1336   1.157       .  T
C1328      N1334   1.158       .  T
C1337      C1338   1.410       .  A
C1337      C1342   1.413       .  A
C1337      C1355   1.450       .  S
C1338      C1343   1.500       .  S
C1338      C1339   1.410       .  A
C1339      C1340   1.412       .  A
C1339      C1344   1.451       .  S
C1340      C1341   1.418       .  A
C1340      C1356   1.451       .  S
C1341      C1342   1.416       .  A
C1342      C1345   1.451       .  S
C1343      C1346   1.411       .  A
C1343      C1350   1.411       .  A
C1344      N1361   1.157       .  T
C1345      N1363   1.157       .  T
C1346      C1347   1.412       .  A
C1346      C1351   1.451       .  S
C1347      C1348   1.417       .  A
C1347      C1353   1.452       .  S
C1348      C1349   1.416       .  A
C1349      C1350   1.413       .  A
C1349      C1352   1.450       .  S
C1350      C1354   1.450       .  S
C1351      N1358   1.157   1_556  T
C1352      N1359   1.157       .  T
C1353      N1357   1.158   1_556  T
C1354      N1360   1.157       .  T
C1355      N1364   1.157       .  T
C1356      N1362   1.157       .  T
C1365      C1366   1.408   1_554  A
C1365      C1370   1.413   1_554  A
C1365      C1383   1.451       .  S
C1366      C1371   1.498   1_556  S
C1366      C1367   1.411       .  A
C1367      C1368   1.412       .  A
C1367      C1372   1.451       .  S
C1368      C1369   1.417       .  A
C1368      C1384   1.451       .  S
C1369      C1370   1.419       .  A
C1370      C1373   1.450       .  S
C1371      C1374   1.409   1_554  A
C1371      C1378   1.411       .  A
C1372      N1389   1.157       .  T
C1373      N1391   1.157   1_556  T
C1374      C1375   1.411   1_556  A
C1374      C1379   1.450       .  S
C1375      C1376   1.417       .  A
C1375      C1381   1.451   1_554  S
C1376      C1377   1.415       .  A
C1377      C1378   1.412       .  A
C1377      C1380   1.451       .  S
C1378      C1382   1.450       .  S
C1379      N1386   1.157       .  T
C1380      N1387   1.157       .  T
C1381      N1385   1.157       .  T
C1382      N1388   1.157       .  T
C1383      N1392   1.157       .  T
C1384      N1390   1.157       .  T
C1393      C1394   1.410       .  A
C1393      C1398   1.411       .  A
C1393      C1411   1.453       .  S
C1394      C1399   1.504       .  S
C1394      C1395   1.411       .  A
C1395      C1396   1.418       .  A
C1395      C1400   1.450       .  S
C1396      C1397   1.419       .  A
C1396      C1412   1.450       .  S
C1397      C1398   1.421       .  A
C1398      C1401   1.452       .  S
C1399      C1402   1.411       .  A
C1399      C1406   1.412       .  A
C1400      N1417   1.157       .  T
C1401      N1419   1.157       .  T
C1402      C1403   1.411       .  A
C1402      C1407   1.452       .  S
C1403      C1404   1.417       .  A
C1403      C1409   1.452       .  S
C1404      C1405   1.417       .  A
C1405      C1406   1.417       .  A
C1405      C1408   1.450       .  S
C1406      C1410   1.449       .  S
C1407      N1414   1.157       .  T
C1408      N1415   1.157       .  T
C1409      N1413   1.157       .  T
C1410      N1416   1.157       .  T
C1411      N1420   1.157       .  T
C1412      N1418   1.157       .  T
C1421      C1422   1.411       .  A
C1421      C1426   1.414       .  A
C1421      C1439   1.450       .  S
C1422      C1427   1.500       .  S
C1422      C1423   1.409       .  A
C1423      C1424   1.411       .  A
C1423      C1428   1.451       .  S
C1424      C1425   1.420       .  A
C1424      C1440   1.452       .  S
C1425      C1426   1.415       .  A
C1426      C1429   1.450       .  S
C1427      C1430   1.409       .  A
C1427      C1434   1.413       .  A
C1428      N1445   1.157       .  T
C1429      N1447   1.157       .  T
C1430      C1431   1.410       .  A
C1430      C1435   1.451       .  S
C1431      C1432   1.417       .  A
C1431      C1437   1.452       .  S
C1432      C1433   1.414       .  A
C1433      C1434   1.416       .  A
C1433      C1436   1.450       .  S
C1434      C1438   1.450       .  S
C1435      N1442   1.157       .  T
C1436      N1443   1.157       .  T
C1437      N1441   1.157       .  T
C1438      N1444   1.157       .  T
C1439      N1448   1.157       .  T
C1440      N1446   1.158       .  T
C1449      C1450   1.410       .  A
C1449      C1454   1.410       .  A
C1449      C1467   1.451       .  S
C1450      C1455   1.498       .  S
C1450      C1451   1.410       .  A
C1451      C1452   1.413       .  A
C1451      C1456   1.451       .  S
C1452      C1453   1.417       .  A
C1452      C1468   1.450       .  S
C1453      C1454   1.417       .  A
C1454      C1457   1.452       .  S
C1455      C1458   1.410       .  A
C1455      C1462   1.407       .  A
C1456      N1473   1.157       .  T
C1457      N1475   1.158       .  T
C1458      C1459   1.414       .  A
C1458      C1463   1.451       .  S
C1459      C1460   1.421       .  A
C1459      C1465   1.451       .  S
C1460      C1461   1.423       .  A
C1461      C1462   1.409       .  A
C1461      C1464   1.452       .  S
C1462      C1466   1.452       .  S
C1463      N1470   1.157       .  T
C1464      N1471   1.158       .  T
C1465      N1469   1.158       .  T
C1466      N1472   1.157       .  T
C1467      N1476   1.157       .  T
C1468      N1474   1.157       .  T
C1477      C1478   1.410       .  A
C1477      C1482   1.413       .  A
C1477      C1495   1.451       .  S
C1478      C1483   1.502       .  S
C1478      C1479   1.410       .  A
C1479      C1480   1.414       .  A
C1479      C1484   1.450       .  S
C1480      C1481   1.418       .  A
C1480      C1496   1.450       .  S
C1481      C1482   1.418       .  A
C1482      C1485   1.451       .  S
C1483      C1486   1.411       .  A
C1483      C1490   1.410       .  A
C1484      N1501   1.157       .  T
C1485      N1503   1.157       .  T
C1486      C1487   1.415       .  A
C1486      C1491   1.450       .  S
C1487      C1488   1.418       .  A
C1487      C1493   1.450       .  S
C1488      C1489   1.417       .  A
C1489      C1490   1.411       .  A
C1489      C1492   1.451       .  S
C1490      C1494   1.451       .  S
C1491      N1498   1.157       .  T
C1492      N1499   1.157       .  T
C1493      N1497   1.157       .  T
C1494      N1500   1.157       .  T
C1495      N1504   1.157       .  T
C1496      N1502   1.157       .  T
C1505      C1506   1.410       .  A
C1505      C1510   1.410       .  A
C1505      C1523   1.452       .  S
C1506      C1511   1.499       .  S
C1506      C1507   1.411       .  A
C1507      C1508   1.415       .  A
C1507      C1512   1.450       .  S
C1508      C1509   1.417       .  A
C1508      C1524   1.450       .  S
C1509      C1510   1.417       .  A
C1510      C1513   1.452       .  S
C1511      C1514   1.411       .  A
C1511      C1518   1.411       .  A
C1512      N1529   1.157       .  T
C1513      N1531   1.157       .  T
C1514      C1515   1.410       .  A
C1514      C1519   1.451       .  S
C1515      C1516   1.415       .  A
C1515      C1521   1.452       .  S
C1516      C1517   1.415       .  A
C1517      C1518   1.413       .  A
C1517      C1520   1.450       .  S
C1518      C1522   1.450       .  S
C1519      N1526   1.157       .  T
C1520      N1527   1.157       .  T
C1521      N1525   1.157       .  T
C1522      N1528   1.157       .  T
C1523      N1532   1.157       .  T
C1524      N1530   1.157       .  T
C1533      C1534   1.411       .  A
C1533      C1538   1.415       .  A
C1533      C1551   1.450       .  S
C1534      C1539   1.500       .  S
C1534      C1535   1.408       .  A
C1535      C1536   1.411       .  A
C1535      C1540   1.451       .  S
C1536      C1537   1.419       .  A
C1536      C1552   1.451       .  S
C1537      C1538   1.418       .  A
C1538      C1541   1.450       .  S
C1539      C1542   1.407       .  A
C1539      C1546   1.410       .  A
C1540      N1557   1.157       .  T
C1541      N1559   1.157       .  T
C1542      C1543   1.412       .  A
C1542      C1547   1.452       .  S
C1543      C1544   1.423       .  A
C1543      C1549   1.451       .  S
C1544      C1545   1.421       .  A
C1545      C1546   1.415       .  A
C1545      C1548   1.451       .  S
C1546      C1550   1.451       .  S
C1547      N1554   1.157       .  T
C1548      N1555   1.157       .  T
C1549      N1553   1.158       .  T
C1550      N1556   1.157       .  T
C1551      N1560   1.157       .  T
C1552      N1558   1.157       .  T
C1561      C1562   1.412       .  A
C1561      C1566   1.415       .  A
C1561      C1579   1.451       .  S
C1562      C1567   1.506   1_554  S
C1562      C1563   1.411       .  A
C1563      C1564   1.414       .  A
C1563      C1568   1.450   1_554  S
C1564      C1565   1.417       .  A
C1564      C1580   1.451       .  S
C1565      C1566   1.418       .  A
C1566      C1569   1.451       .  S
C1567      C1570   1.412       .  A
C1567      C1574   1.411       .  A
C1568      N1585   1.157       .  T
C1569      N1587   1.157       .  T
C1570      C1571   1.416       .  A
C1570      C1575   1.450       .  S
C1571      C1572   1.417       .  A
C1571      C1577   1.450       .  S
C1572      C1573   1.417       .  A
C1573      C1574   1.413       .  A
C1573      C1576   1.451       .  S
C1574      C1578   1.451       .  S
C1575      N1582   1.157   1_556  T
C1576      N1583   1.157       .  T
C1577      N1581   1.157       .  T
C1578      N1584   1.157       .  T
C1579      N1588   1.157       .  T
C1580      N1586   1.157       .  T
C1589      C1590   1.412       .  A
C1589      C1594   1.414       .  A
C1589      C1607   1.450       .  S
C1590      C1595   1.502       .  S
C1590      C1591   1.411       .  A
C1591      C1592   1.412       .  A
C1591      C1596   1.451       .  S
C1592      C1593   1.416       .  A
C1592      C1608   1.452       .  S
C1593      C1594   1.416       .  A
C1594      C1597   1.450       .  S
C1595      C1598   1.410       .  A
C1595      C1602   1.411       .  A
C1596      N1613   1.157       .  T
C1597      N1615   1.157       .  T
C1598      C1599   1.411       .  A
C1598      C1603   1.452       .  S
C1599      C1600   1.419       .  A
C1599      C1605   1.452       .  S
C1600      C1601   1.418       .  A
C1601      C1602   1.416       .  A
C1601      C1604   1.450       .  S
C1602      C1606   1.450       .  S
C1603      N1610   1.157       .  T
C1604      N1611   1.157       .  T
C1605      N1609   1.157       .  T
C1606      N1612   1.157       .  T
C1607      N1616   1.157       .  T
C1608      N1614   1.157       .  T
C1617      C1618   1.410       .  A
C1617      C1622   1.414       .  A
C1617      C1635   1.450       .  S
C1618      C1623   1.502       .  S
C1618      C1619   1.411       .  A
C1619      C1620   1.413       .  A
C1619      C1624   1.451       .  S
C1620      C1621   1.416       .  A
C1620      C1636   1.451       .  S
C1621      C1622   1.418       .  A
C1622      C1625   1.451       .  S
C1623      C1626   1.408       .  A
C1623      C1630   1.411       .  A
C1624      N1641   1.157       .  T
C1625      N1643   1.157       .  T
C1626      C1627   1.414       .  A
C1626      C1631   1.451       .  S
C1627      C1628   1.421       .  A
C1627      C1633   1.450       .  S
C1628      C1629   1.420       .  A
C1629      C1630   1.415       .  A
C1629      C1632   1.451       .  S
C1630      C1634   1.451       .  S
C1631      N1638   1.157       .  T
C1632      N1639   1.158       .  T
C1633      N1637   1.157       .  T
C1634      N1640   1.157       .  T
C1635      N1644   1.157       .  T
C1636      N1642   1.157       .  T
C1645      C1646   1.409       .  A
C1645      C1650   1.413       .  A
C1645      C1663   1.451       .  S
C1646      C1651   1.501       .  S
C1646      C1647   1.410       .  A
C1647      C1648   1.414       .  A
C1647      C1652   1.450       .  S
C1648      C1649   1.418       .  A
C1648      C1664   1.450       .  S
C1649      C1650   1.420       .  A
C1650      C1653   1.451       .  S
C1651      C1654   1.411       .  A
C1651      C1658   1.411       .  A
C1652      N1669   1.157       .  T
C1653      N1671   1.157       .  T
C1654      C1655   1.412       .  A
C1654      C1659   1.451       .  S
C1655      C1656   1.417       .  A
C1655      C1661   1.452       .  S
C1656      C1657   1.415       .  A
C1657      C1658   1.414       .  A
C1657      C1660   1.450       .  S
C1658      C1662   1.450       .  S
C1659      N1666   1.157       .  T
C1660      N1667   1.157       .  T
C1661      N1665   1.157       .  T
C1662      N1668   1.157       .  T
C1663      N1672   1.157       .  T
C1664      N1670   1.157       .  T
C1673      C1674   1.409       .  A
C1673      C1678   1.409       .  A
C1673      C1691   1.451       .  S
C1674      C1679   1.497       .  S
C1674      C1675   1.412       .  A
C1675      C1676   1.413       .  A
C1675      C1680   1.450       .  S
C1676      C1677   1.414       .  A
C1676      C1692   1.450       .  S
C1677      C1678   1.417       .  A
C1678      C1681   1.451       .  S
C1679      C1682   1.410       .  A
C1679      C1686   1.411       .  A
C1680      N1697   1.157       .  T
C1681      N1699   1.157       .  T
C1682      C1683   1.411       .  A
C1682      C1687   1.451       .  S
C1683      C1684   1.415       .  A
C1683      C1689   1.451       .  S
C1684      C1685   1.414       .  A
C1685      C1686   1.412       .  A
C1685      C1688   1.451       .  S
C1686      C1690   1.451       .  S
C1687      N1694   1.157       .  T
C1688      N1695   1.157       .  T
C1689      N1693   1.157       .  T
C1690      N1696   1.157       .  T
C1691      N1700   1.157       .  T
C1692      N1698   1.157   1_554  T
C1701      C1702   1.410       .  A
C1701      C1706   1.408       .  A
C1701      C1719   1.451       .  S
C1702      C1707   1.497       .  S
C1702      C1703   1.410       .  A
C1703      C1704   1.414       .  A
C1703      C1708   1.450       .  S
C1704      C1705   1.416       .  A
C1704      C1720   1.450       .  S
C1705      C1706   1.415       .  A
C1706      C1709   1.452       .  S
C1707      C1710   1.409       .  A
C1707      C1714   1.409       .  A
C1708      N1725   1.157       .  T
C1709      N1727   1.157       .  T
C1710      C1711   1.409       .  A
C1710      C1715   1.453       .  S
C1711      C1712   1.420       .  A
C1711      C1717   1.452       .  S
C1712      C1713   1.420       .  A
C1713      C1714   1.416       .  A
C1713      C1716   1.450       .  S
C1714      C1718   1.450       .  S
C1715      N1722   1.157       .  T
C1716      N1723   1.157       .  T
C1717      N1721   1.157       .  T
C1718      N1724   1.157       .  T
C1719      N1728   1.157       .  T
C1720      N1726   1.157       .  T
C1729      C1730   1.410       .  A
C1729      C1734   1.415       .  A
C1729      C1747   1.451       .  S
C1730      C1735   1.500       .  S
C1730      C1731   1.410       .  A
C1731      C1732   1.411       .  A
C1731      C1736   1.452       .  S
C1732      C1733   1.418       .  A
C1732      C1748   1.450       .  S
C1733      C1734   1.420       .  A
C1734      C1737   1.451       .  S
C1735      C1738   1.411       .  A
C1735      C1742   1.410       .  A
C1736      N1753   1.157       .  T
C1737      N1755   1.157       .  T
C1738      C1739   1.411       .  A
C1738      C1743   1.451       .  S
C1739      C1740   1.416       .  A
C1739      C1745   1.451       .  S
C1740      C1741   1.418       .  A
C1741      C1742   1.413       .  A
C1741      C1744   1.451       .  S
C1742      C1746   1.450       .  S
C1743      N1750   1.157       .  T
C1744      N1751   1.157       .  T
C1745      N1749   1.157       .  T
C1746      N1752   1.157       .  T
C1747      N1756   1.157       .  T
C1748      N1754   1.157       .  T
C1757      C1758   1.413       .  A
C1757      C1762   1.412       .  A
C1757      C1775   1.451       .  S
C1758      C1763   1.500       .  S
C1758      C1759   1.412       .  A
C1759      C1760   1.411       .  A
C1759      C1764   1.451       .  S
C1760      C1761   1.414       .  A
C1760      C1776   1.452       .  S
C1761      C1762   1.415       .  A
C1762      C1765   1.451       .  S
C1763      C1766   1.413       .  A
C1763      C1770   1.409   1_565  A
C1764      N1781   1.157       .  T
C1765      N1783   1.157       .  T
C1766      C1767   1.414       .  A
C1766      C1771   1.451       .  S
C1767      C1768   1.416   1_565  A
C1767      C1773   1.451       .  S
C1768      C1769   1.419       .  A
C1769      C1770   1.410       .  A
C1769      C1772   1.452       .  S
C1770      C1774   1.452       .  S
C1771      N1778   1.157       .  T
C1772      N1779   1.157       .  T
C1773      N1777   1.157       .  T
C1774      N1780   1.157       .  T
C1775      N1784   1.157       .  T
C1776      N1782   1.157       .  T
C1785      C1786   1.410   1_545  A
C1785      C1790   1.415       .  A
C1785      C1803   1.451   1_554  S
C1786      C1791   1.504   1_554  S
C1786      C1787   1.411       .  A
C1787      C1788   1.413       .  A
C1787      C1792   1.450       .  S
C1788      C1789   1.417   1_565  A
C1788      C1804   1.450       .  S
C1789      C1790   1.421       .  A
C1790      C1793   1.452       .  S
C1791      C1794   1.411       .  A
C1791      C1798   1.411       .  A
C1792      N1809   1.157       .  T
C1793      N1811   1.158       .  T
C1794      C1795   1.415       .  A
C1794      C1799   1.450   1_565  S
C1795      C1796   1.417       .  A
C1795      C1801   1.450       .  S
C1796      C1797   1.418       .  A
C1797      C1798   1.413       .  A
C1797      C1800   1.451       .  S
C1798      C1802   1.451   1_556  S
C1799      N1806   1.157       .  T
C1800      N1807   1.157       .  T
C1801      N1805   1.157       .  T
C1802      N1808   1.157       .  T
C1803      N1812   1.157       .  T
C1804      N1810   1.157       .  T
C1813      C1814   1.411       .  A
C1813      C1818   1.414       .  A
C1813      C1831   1.450       .  S
C1814      C1819   1.500       .  S
C1814      C1815   1.411       .  A
C1815      C1816   1.411       .  A
C1815      C1820   1.451       .  S
C1816      C1817   1.416       .  A
C1816      C1832   1.451       .  S
C1817      C1818   1.417       .  A
C1818      C1821   1.451       .  S
C1819      C1822   1.410       .  A
C1819      C1826   1.408       .  A
C1820      N1837   1.157       .  T
C1821      N1839   1.157       .  T
C1822      C1823   1.417       .  A
C1822      C1827   1.450       .  S
C1823      C1824   1.421       .  A
C1823      C1829   1.450       .  S
C1824      C1825   1.422       .  A
C1825      C1826   1.410       .  A
C1825      C1828   1.452       .  S
C1826      C1830   1.453       .  S
C1827      N1834   1.157       .  T
C1828      N1835   1.158       .  T
C1829      N1833   1.157       .  T
C1830      N1836   1.157       .  T
C1831      N1840   1.157       .  T
C1832      N1838   1.158       .  T
C1841      C1842   1.410       .  A
C1841      C1846   1.411       .  A
C1841      C1859   1.451       .  S
C1842      C1847   1.502       .  S
C1842      C1843   1.413       .  A
C1843      C1844   1.415       .  A
C1843      C1848   1.450       .  S
C1844      C1845   1.415       .  A
C1844      C1860   1.450       .  S
C1845      C1846   1.417       .  A
C1846      C1849   1.452       .  S
C1847      C1850   1.411       .  A
C1847      C1854   1.412       .  A
C1848      N1865   1.157       .  T
C1849      N1867   1.157       .  T
C1850      C1851   1.411       .  A
C1850      C1855   1.452       .  S
C1851      C1852   1.419       .  A
C1851      C1857   1.452       .  S
C1852      C1853   1.417       .  A
C1853      C1854   1.414       .  A
C1853      C1856   1.450       .  S
C1854      C1858   1.450       .  S
C1855      N1862   1.157       .  T
C1856      N1863   1.157       .  T
C1857      N1861   1.158       .  T
C1858      N1864   1.157       .  T
C1859      N1868   1.157       .  T
C1860      N1866   1.157       .  T
C1869      C1870   1.411       .  A
C1869      C1874   1.419       .  A
C1869      C1887   1.450       .  S
C1870      C1875   1.504       .  S
C1870      C1871   1.410       .  A
C1871      C1872   1.411       .  A
C1871      C1876   1.452       .  S
C1872      C1873   1.420       .  A
C1872      C1888   1.452       .  S
C1873      C1874   1.420       .  A
C1874      C1877   1.450       .  S
C1875      C1878   1.412       .  A
C1875      C1882   1.411       .  A
C1876      N1893   1.157       .  T
C1877      N1895   1.157       .  T
C1878      C1879   1.415       .  A
C1878      C1883   1.449       .  S
C1879      C1880   1.415       .  A
C1879      C1885   1.450       .  S
C1880      C1881   1.416       .  A
C1881      C1882   1.412       .  A
C1881      C1884   1.452       .  S
C1882      C1886   1.450       .  S
C1883      N1890   1.157       .  T
C1884      N1891   1.157       .  T
C1885      N1889   1.157       .  T
C1886      N1892   1.157       .  T
C1887      N1896   1.157       .  T
C1888      N1894   1.157       .  T
C1897      C1898   1.410       .  A
C1897      C1902   1.414       .  A
C1897      C1915   1.450       .  S
C1898      C1903   1.502       .  S
C1898      C1899   1.411       .  A
C1899      C1900   1.413       .  A
C1899      C1904   1.451       .  S
C1900      C1901   1.418       .  A
C1900      C1916   1.451       .  S
C1901      C1902   1.418       .  A
C1902      C1905   1.451       .  S
C1903      C1906   1.411       .  A
C1903      C1910   1.411       .  A
C1904      N1921   1.157       .  T
C1905      N1923   1.157       .  T
C1906      C1907   1.414       .  A
C1906      C1911   1.450       .  S
C1907      C1908   1.417       .  A
C1907      C1913   1.451       .  S
C1908      C1909   1.418       .  A
C1909      C1910   1.413       .  A
C1909      C1912   1.451       .  S
C1910      C1914   1.451       .  S
C1911      N1918   1.157       .  T
C1912      N1919   1.157       .  T
C1913      N1917   1.157       .  T
C1914      N1920   1.157       .  T
C1915      N1924   1.157       .  T
C1916      N1922   1.157       .  T
C1925      C1926   1.408       .  A
C1925      C1930   1.411       .  A
C1925      C1943   1.452       .  S
C1926      C1931   1.499       .  S
C1926      C1927   1.409       .  A
C1927      C1928   1.414       .  A
C1927      C1932   1.451       .  S
C1928      C1929   1.420       .  A
C1928      C1944   1.450       .  S
C1929      C1930   1.423       .  A
C1930      C1933   1.452       .  S
C1931      C1934   1.410       .  A
C1931      C1938   1.411       .  A
C1932      N1949   1.157       .  T
C1933      N1951   1.157       .  T
C1934      C1935   1.411       .  A
C1934      C1939   1.451       .  S
C1935      C1936   1.418       .  A
C1935      C1941   1.452       .  S
C1936      C1937   1.416       .  A
C1937      C1938   1.412       .  A
C1937      C1940   1.451       .  S
C1938      C1942   1.451       .  S
C1939      N1946   1.157       .  T
C1940      N1947   1.157       .  T
C1941      N1945   1.158       .  T
C1942      N1948   1.157       .  T
C1943      N1952   1.157       .  T
C1944      N1950   1.157       .  T
C1953      C1954   1.410       .  A
C1953      C1958   1.411       .  A
C1953      C1971   1.452       .  S
C1954      C1959   1.498       .  S
C1954      C1955   1.409       .  A
C1955      C1956   1.414       .  A
C1955      C1960   1.450       .  S
C1956      C1957   1.418       .  A
C1956      C1972   1.450       .  S
C1957      C1958   1.418       .  A
C1958      C1961   1.452       .  S
C1959      C1962   1.412       .  A
C1959      C1966   1.410       .  A
C1960      N1977   1.157       .  T
C1961      N1979   1.157   1_554  T
C1962      C1963   1.413       .  A
C1962      C1967   1.450       .  S
C1963      C1964   1.415       .  A
C1963      C1969   1.450       .  S
C1964      C1965   1.415       .  A
C1965      C1966   1.410       .  A
C1965      C1968   1.452       .  S
C1966      C1970   1.450       .  S
C1967      N1974   1.157       .  T
C1968      N1975   1.157       .  T
C1969      N1973   1.157       .  T
C1970      N1976   1.157       .  T
C1971      N1980   1.157       .  T
C1972      N1978   1.157       .  T
C1981      C1982   1.412       .  A
C1981      C1986   1.412       .  A
C1981      C1999   1.451       .  S
C1982      C1987   1.499       .  S
C1982      C1983   1.412       .  A
C1983      C1984   1.411       .  A
C1983      C1988   1.451       .  S
C1984      C1985   1.415       .  A
C1984      C2000   1.451       .  S
C1985      C1986   1.414       .  A
C1986      C1989   1.451       .  S
C1987      C1990   1.409       .  A
C1987      C1994   1.412       .  A
C1988      N2005   1.157       .  T
C1989      N2007   1.158       .  T
C1990      C1991   1.408       .  A
C1990      C1995   1.452       .  S
C1991      C1992   1.418       .  A
C1991      C1997   1.451       .  S
C1992      C1993   1.417       .  A
C1993      C1994   1.415       .  A
C1993      C1996   1.450       .  S
C1994      C1998   1.450       .  S
C1995      N2002   1.157       .  T
C1996      N2003   1.158   1_556  T
C1997      N2001   1.157       .  T
C1998      N2004   1.157       .  T
C1999      N2008   1.157       .  T
C2000      N2006   1.157       .  T
C2009      C2010   1.410       .  A
C2009      C2014   1.414       .  A
C2009      C2027   1.450       .  S
C2010      C2015   1.502       .  S
C2010      C2011   1.411       .  A
C2011      C2012   1.414       .  A
C2011      C2016   1.451       .  S
C2012      C2013   1.418       .  A
C2012      C2028   1.452       .  S
C2013      C2014   1.416       .  A
C2014      C2017   1.450       .  S
C2015      C2018   1.410       .  A
C2015      C2022   1.411       .  A
C2016      N2033   1.157       .  T
C2017      N2035   1.157       .  T
C2018      C2019   1.412       .  A
C2018      C2023   1.451       .  S
C2019      C2020   1.419       .  A
C2019      C2025   1.451       .  S
C2020      C2021   1.417       .  A
C2021      C2022   1.415       .  A
C2021      C2024   1.450       .  S
C2022      C2026   1.450       .  S
C2023      N2030   1.157       .  T
C2024      N2031   1.157       .  T
C2025      N2029   1.157       .  T
C2026      N2032   1.157       .  T
C2027      N2036   1.157       .  T
C2028      N2034   1.158       .  T
C2037      C2038   1.411       .  A
C2037      C2042   1.414       .  A
C2037      C2055   1.450       .  S
C2038      C2043   1.503   1_564  S
C2038      C2039   1.410   1_554  A
C2039      C2040   1.415   1_556  A
C2039      C2044   1.450       .  S
C2040      C2041   1.419       .  A
C2040      C2056   1.450   1_554  S
C2041      C2042   1.417       .  A
C2042      C2045   1.451       .  S
C2043      C2046   1.410       .  A
C2043      C2050   1.411       .  A
C2044      N2061   1.157       .  T
C2045      N2063   1.157       .  T
C2046      C2047   1.415       .  A
C2046      C2051   1.450   1_556  S
C2047      C2048   1.418       .  A
C2047      C2053   1.451       .  S
C2048      C2049   1.417       .  A
C2049      C2050   1.413       .  A
C2049      C2052   1.451       .  S
C2050      C2054   1.451   1_545  S
C2051      N2058   1.157       .  T
C2052      N2059   1.157       .  T
C2053      N2057   1.157       .  T
C2054      N2060   1.157       .  T
C2055      N2064   1.157   1_565  T
C2056      N2062   1.158       .  T
C2065      C2066   1.409       .  A
C2065      C2070   1.413       .  A
C2065      C2083   1.450       .  S
C2066      C2071   1.497       .  S
C2066      C2067   1.409       .  A
C2067      C2068   1.410       .  A
C2067      C2072   1.452       .  S
C2068      C2069   1.419       .  A
C2068      C2084   1.452       .  S
C2069      C2070   1.418       .  A
C2070      C2073   1.451       .  S
C2071      C2074   1.410       .  A
C2071      C2078   1.409       .  A
C2072      N2089   1.157       .  T
C2073      N2091   1.157       .  T
C2074      C2075   1.414       .  A
C2074      C2079   1.450       .  S
C2075      C2076   1.417       .  A
C2075      C2081   1.450       .  S
C2076      C2077   1.417       .  A
C2077      C2078   1.409       .  A
C2077      C2080   1.451       .  S
C2078      C2082   1.452       .  S
C2079      N2086   1.157       .  T
C2080      N2087   1.157       .  T
C2081      N2085   1.157       .  T
C2082      N2088   1.157       .  T
C2083      N2092   1.157       .  T
C2084      N2090   1.157       .  T
C2093      C2094   1.410       .  A
C2093      C2098   1.410       .  A
C2093      C2111   1.451       .  S
C2094      C2099   1.499       .  S
C2094      C2095   1.410       .  A
C2095      C2096   1.414       .  A
C2095      C2100   1.450       .  S
C2096      C2097   1.417       .  A
C2096      C2112   1.450       .  S
C2097      C2098   1.417       .  A
C2098      C2101   1.452       .  S
C2099      C2102   1.409       .  A
C2099      C2106   1.410       .  A
C2100      N2117   1.157       .  T
C2101      N2119   1.157       .  T
C2102      C2103   1.410       .  A
C2102      C2107   1.452       .  S
C2103      C2104   1.420       .  A
C2103      C2109   1.452       .  S
C2104      C2105   1.418       .  A
C2105      C2106   1.415       .  A
C2105      C2108   1.450       .  S
C2106      C2110   1.450       .  S
C2107      N2114   1.157       .  T
C2108      N2115   1.157       .  T
C2109      N2113   1.158   1_554  T
C2110      N2116   1.157       .  T
C2111      N2120   1.157       .  T
C2112      N2118   1.157       .  T
C2121      C2122   1.411       .  A
C2121      C2126   1.413       .  A
C2121      C2139   1.450   1_545  S
C2122      C2127   1.502   1_546  S
C2122      C2123   1.410       .  A
C2123      C2124   1.413       .  A
C2123      C2128   1.450   1_556  S
C2124      C2125   1.418       .  A
C2124      C2140   1.451       .  S
C2125      C2126   1.415       .  A
C2126      C2129   1.451       .  S
C2127      C2130   1.410       .  A
C2127      C2134   1.409   1_554  A
C2128      N2145   1.157       .  T
C2129      N2147   1.157       .  T
C2130      C2131   1.414       .  A
C2130      C2135   1.451       .  S
C2131      C2132   1.419       .  A
C2131      C2137   1.451       .  S
C2132      C2133   1.421       .  A
C2133      C2134   1.415   1_554  A
C2133      C2136   1.450   1_554  S
C2134      C2138   1.451       .  S
C2135      N2142   1.157   1_565  T
C2136      N2143   1.157       .  T
C2137      N2141   1.157       .  T
C2138      N2144   1.157       .  T
C2139      N2148   1.157       .  T
C2140      N2146   1.157   1_556  T
C2149      C2150   1.410       .  A
C2149      C2154   1.411       .  A
C2149      C2167   1.451       .  S
C2150      C2155   1.497       .  S
C2150      C2151   1.411       .  A
C2151      C2152   1.412       .  A
C2151      C2156   1.450       .  S
C2152      C2153   1.414       .  A
C2152      C2168   1.450       .  S
C2153      C2154   1.416       .  A
C2154      C2157   1.452       .  S
C2155      C2158   1.410       .  A
C2155      C2162   1.411       .  A
C2156      N2173   1.157       .  T
C2157      N2175   1.157       .  T
C2158      C2159   1.408       .  A
C2158      C2163   1.452       .  S
C2159      C2160   1.415       .  A
C2159      C2165   1.452       .  S
C2160      C2161   1.416       .  A
C2161      C2162   1.415       .  A
C2161      C2164   1.450       .  S
C2162      C2166   1.450       .  S
C2163      N2170   1.157       .  T
C2164      N2171   1.157       .  T
C2165      N2169   1.157       .  T
C2166      N2172   1.157       .  T
C2167      N2176   1.157       .  T
C2168      N2174   1.157       .  T
C2177      C2178   1.410       .  A
C2177      C2182   1.414       .  A
C2177      C2195   1.450       .  S
C2178      C2183   1.497       .  S
C2178      C2179   1.408       .  A
C2179      C2180   1.410       .  A
C2179      C2184   1.452       .  S
C2180      C2181   1.420       .  A
C2180      C2196   1.451       .  S
C2181      C2182   1.417       .  A
C2182      C2185   1.450       .  S
C2183      C2186   1.410       .  A
C2183      C2190   1.409       .  A
C2184      N2201   1.157       .  T
C2185      N2203   1.157       .  T
C2186      C2187   1.412       .  A
C2186      C2191   1.450       .  S
C2187      C2188   1.417       .  A
C2187      C2193   1.451       .  S
C2188      C2189   1.418       .  A
C2189      C2190   1.411       .  A
C2189      C2192   1.452       .  S
C2190      C2194   1.451       .  S
C2191      N2198   1.157       .  T
C2192      N2199   1.158       .  T
C2193      N2197   1.157       .  T
C2194      N2200   1.157       .  T
C2195      N2204   1.157       .  T
C2196      N2202   1.157       .  T
C2205      C2206   1.411       .  A
C2205      C2210   1.412       .  A
C2205      C2223   1.451       .  S
C2206      C2211   1.496       .  S
C2206      C2207   1.409       .  A
C2207      C2208   1.411       .  A
C2207      C2212   1.450       .  S
C2208      C2209   1.416       .  A
C2208      C2224   1.452       .  S
C2209      C2210   1.413       .  A
C2210      C2213   1.450       .  S
C2211      C2214   1.412       .  A
C2211      C2218   1.410       .  A
C2212      N2229   1.157       .  T
C2213      N2231   1.157       .  T
C2214      C2215   1.413       .  A
C2214      C2219   1.450       .  S
C2215      C2216   1.413       .  A
C2215      C2221   1.450   1_554  S
C2216      C2217   1.414       .  A
C2217      C2218   1.408       .  A
C2217      C2220   1.452       .  S
C2218      C2222   1.451       .  S
C2219      N2226   1.157       .  T
C2220      N2227   1.158       .  T
C2221      N2225   1.157       .  T
C2222      N2228   1.157       .  T
C2223      N2232   1.157       .  T
C2224      N2230   1.158       .  T
C2233      C2234   1.408       .  A
C2233      C2238   1.413       .  A
C2233      C2251   1.450       .  S
C2234      C2239   1.495       .  S
C2234      C2235   1.409       .  A
C2235      C2236   1.409       .  A
C2235      C2240   1.452       .  S
C2236      C2237   1.420       .  A
C2236      C2252   1.452       .  S
C2237      C2238   1.418       .  A
C2238      C2241   1.450       .  S
C2239      C2242   1.410       .  A
C2239      C2246   1.409       .  A
C2240      N2257   1.157       .  T
C2241      N2259   1.157       .  T
C2242      C2243   1.413       .  A
C2242      C2247   1.450       .  S
C2243      C2244   1.415       .  A
C2243      C2249   1.450       .  S
C2244      C2245   1.416       .  A
C2245      C2246   1.408       .  A
C2245      C2248   1.453       .  S
C2246      C2250   1.451       .  S
C2247      N2254   1.157       .  T
C2248      N2255   1.158       .  T
C2249      N2253   1.157       .  T
C2250      N2256   1.157       .  T
C2251      N2260   1.157       .  T
C2252      N2258   1.157       .  T
C2261      C2262   1.411       .  A
C2261      C2266   1.411       .  A
C2261      C2279   1.451       .  S
C2262      C2267   1.500       .  S
C2262      C2263   1.411       .  A
C2263      C2264   1.413       .  A
C2263      C2268   1.451       .  S
C2264      C2265   1.418       .  A
C2264      C2280   1.451       .  S
C2265      C2266   1.416       .  A
C2266      C2269   1.451       .  S
C2267      C2270   1.411       .  A
C2267      C2274   1.410       .  A
C2268      N2285   1.157       .  T
C2269      N2287   1.157       .  T
C2270      C2271   1.411       .  A
C2270      C2275   1.452       .  S
C2271      C2272   1.419       .  A
C2271      C2277   1.452       .  S
C2272      C2273   1.419       .  A
C2273      C2274   1.413       .  A
C2273      C2276   1.451       .  S
C2274      C2278   1.451       .  S
C2275      N2282   1.157       .  T
C2276      N2283   1.157       .  T
C2277      N2281   1.158       .  T
C2278      N2284   1.157       .  T
C2279      N2288   1.157       .  T
C2280      N2286   1.157       .  T
C2289      C2290   1.409       .  A
C2289      C2294   1.411       .  A
C2289      C2307   1.452       .  S
C2290      C2295   1.503       .  S
C2290      C2291   1.412       .  A
C2291      C2292   1.418       .  A
C2291      C2296   1.450       .  S
C2292      C2293   1.417       .  A
C2292      C2308   1.450       .  S
C2293      C2294   1.419       .  A
C2294      C2297   1.452       .  S
C2295      C2298   1.411       .  A
C2295      C2302   1.412       .  A
C2296      N2313   1.157       .  T
C2297      N2315   1.157       .  T
C2298      C2299   1.412       .  A
C2298      C2303   1.451       .  S
C2299      C2300   1.417       .  A
C2299      C2305   1.451       .  S
C2300      C2301   1.416       .  A
C2301      C2302   1.415       .  A
C2301      C2304   1.451       .  S
C2302      C2306   1.450       .  S
C2303      N2310   1.157       .  T
C2304      N2311   1.157       .  T
C2305      N2309   1.157       .  T
C2306      N2312   1.157       .  T
C2307      N2316   1.157       .  T
C2308      N2314   1.157       .  T
C2317      C2318   1.407       .  A
C2317      C2322   1.411       .  A
C2317      C2335   1.452       .  S
C2318      C2323   1.498       .  S
C2318      C2319   1.409       .  A
C2319      C2320   1.414       .  A
C2319      C2324   1.451   1_565  S
C2320      C2321   1.421       .  A
C2320      C2336   1.450       .  S
C2321      C2322   1.424       .  A
C2322      C2325   1.452       .  S
C2323      C2326   1.410       .  A
C2323      C2330   1.408   1_565  A
C2324      N2341   1.157       .  T
C2325      N2343   1.158       .  T
C2326      C2327   1.413       .  A
C2326      C2331   1.451       .  S
C2327      C2328   1.417   1_565  A
C2327      C2333   1.451       .  S
C2328      C2329   1.420       .  A
C2329      C2330   1.411       .  A
C2329      C2332   1.451       .  S
C2330      C2334   1.451       .  S
C2331      N2338   1.157       .  T
C2332      N2339   1.157       .  T
C2333      N2337   1.157       .  T
C2334      N2340   1.157       .  T
C2335      N2344   1.157       .  T
C2336      N2342   1.158   1_565  T
C2345      C2346   1.410       .  A
C2345      C2350   1.415       .  A
C2345      C2363   1.451   1_565  S
C2346      C2351   1.503   1_556  S
C2346      C2347   1.409       .  A
C2347      C2348   1.414       .  A
C2347      C2352   1.451   1_556  S
C2348      C2349   1.422       .  A
C2348      C2364   1.451       .  S
C2349      C2350   1.420       .  A
C2350      C2353   1.450       .  S
C2351      C2354   1.411       .  A
C2351      C2358   1.411   1_565  A
C2352      N2369   1.157       .  T
C2353      N2371   1.157       .  T
C2354      C2355   1.415       .  A
C2354      C2359   1.450       .  S
C2355      C2356   1.416   1_565  A
C2355      C2361   1.450       .  S
C2356      C2357   1.418       .  A
C2357      C2358   1.413       .  A
C2357      C2360   1.452       .  S
C2358      C2362   1.451       .  S
C2359      N2366   1.157       .  T
C2360      N2367   1.157       .  T
C2361      N2365   1.158       .  T
C2362      N2368   1.157   1_554  T
C2363      N2372   1.157       .  T
C2364      N2370   1.157       .  T
C2373      C2374   1.410       .  A
C2373      C2378   1.409       .  A
C2373      C2391   1.451       .  S
C2374      C2379   1.494       .  S
C2374      C2375   1.410       .  A
C2375      C2376   1.411       .  A
C2375      C2380   1.450       .  S
C2376      C2377   1.414       .  A
C2376      C2392   1.450       .  S
C2377      C2378   1.415       .  A
C2378      C2381   1.452       .  S
C2379      C2382   1.410       .  A
C2379      C2386   1.409       .  A
C2380      N2397   1.157       .  T
C2381      N2399   1.157       .  T
C2382      C2383   1.412       .  A
C2382      C2387   1.450       .  S
C2383      C2384   1.416       .  A
C2383      C2389   1.450       .  S
C2384      C2385   1.417       .  A
C2385      C2386   1.409       .  A
C2385      C2388   1.452       .  S
C2386      C2390   1.451       .  S
C2387      N2394   1.157       .  T
C2388      N2395   1.158       .  T
C2389      N2393   1.157       .  T
C2390      N2396   1.157       .  T
C2391      N2400   1.157       .  T
C2392      N2398   1.157       .  T
C2401      C2402   1.410       .  A
C2401      C2406   1.413       .  A
C2401      C2419   1.451       .  S
C2402      C2407   1.504       .  S
C2402      C2403   1.411       .  A
C2403      C2404   1.416       .  A
C2403      C2408   1.450       .  S
C2404      C2405   1.420       .  A
C2404      C2420   1.451       .  S
C2405      C2406   1.419       .  A
C2406      C2409   1.451       .  S
C2407      C2410   1.412       .  A
C2407      C2414   1.410       .  A
C2408      N2425   1.157       .  T
C2409      N2427   1.157       .  T
C2410      C2411   1.415       .  A
C2410      C2415   1.451       .  S
C2411      C2412   1.418       .  A
C2411      C2417   1.451       .  S
C2412      C2413   1.419       .  A
C2413      C2414   1.415       .  A
C2413      C2416   1.451       .  S
C2414      C2418   1.450       .  S
C2415      N2422   1.157       .  T
C2416      N2423   1.157       .  T
C2417      N2421   1.157       .  T
C2418      N2424   1.157       .  T
C2419      N2428   1.157       .  T
C2420      N2426   1.158       .  T
C2429      C2430   1.411       .  A
C2429      C2434   1.410       .  A
C2429      C2447   1.451       .  S
C2430      C2435   1.502       .  S
C2430      C2431   1.413       .  A
C2431      C2432   1.413       .  A
C2431      C2436   1.451       .  S
C2432      C2433   1.416       .  A
C2432      C2448   1.451       .  S
C2433      C2434   1.418       .  A
C2434      C2437   1.452       .  S
C2435      C2438   1.413       .  A
C2435      C2442   1.412       .  A
C2436      N2453   1.157       .  T
C2437      N2455   1.157       .  T
C2438      C2439   1.412       .  A
C2438      C2443   1.451       .  S
C2439      C2440   1.414       .  A
C2439      C2445   1.451       .  S
C2440      C2441   1.416       .  A
C2441      C2442   1.412       .  A
C2441      C2444   1.452       .  S
C2442      C2446   1.451       .  S
C2443      N2450   1.157       .  T
C2444      N2451   1.158       .  T
C2445      N2449   1.157       .  T
C2446      N2452   1.157       .  T
C2447      N2456   1.157       .  T
C2448      N2454   1.157   1_556  T
C2457      C2458   1.412       .  A
C2457      C2462   1.415       .  A
C2457      C2475   1.450       .  S
C2458      C2463   1.505       .  S
C2458      C2459   1.412       .  A
C2459      C2460   1.415       .  A
C2459      C2464   1.451       .  S
C2460      C2461   1.417       .  A
C2460      C2476   1.451       .  S
C2461      C2462   1.416       .  A
C2462      C2465   1.450       .  S
C2463      C2466   1.411       .  A
C2463      C2470   1.411       .  A
C2464      N2481   1.157       .  T
C2465      N2483   1.157       .  T
C2466      C2467   1.415       .  A
C2466      C2471   1.451       .  S
C2467      C2468   1.418       .  A
C2467      C2473   1.451       .  S
C2468      C2469   1.418       .  A
C2469      C2470   1.415       .  A
C2469      C2472   1.451       .  S
C2470      C2474   1.450       .  S
C2471      N2478   1.157       .  T
C2472      N2479   1.157       .  T
C2473      N2477   1.157       .  T
C2474      N2480   1.157       .  T
C2475      N2484   1.157       .  T
C2476      N2482   1.157       .  T
