geometry optimzed in LAMMPS
_audit_creation_date              2020-12-01 
_audit_creation_method            'lammps2cif' 
_symmetry_space_group_name_H-M    'P1' 
_symmetry_Int_Tables_number       1 
_symmetry_cell_setting            triclinic 
loop_ 
_symmetry_equiv_pos_as_xyz 
  x,y,z 
_cell_length_a                    27.27295995 
_cell_length_b                    27.129059863068854 
_cell_length_c                    27.157239731160463 
_cell_angle_alpha                 89.98103115384349 
_cell_angle_beta                  90.09300261020793 
_cell_angle_gamma                 89.89787689109588 
loop_ 
_atom_site_label 
_atom_site_type_symbol 
_atom_site_fract_x 
_atom_site_fract_y 
_atom_site_fract_z 
_atom_site_charge 
O1          O  0.75731407  0.45037190  0.82947281    -0.74000
O2          O  0.83315186  0.55387108  0.75385539    -0.74900
O3          O  0.75866959  0.55512670  0.82785071    -0.63600
O4          O  0.83290083  0.44868986  0.75516773    -0.72000
O5          O  0.77502542  0.44869950  0.69761188    -0.71500
O6          O  0.70163434  0.55516283  0.76941506    -0.62800
O7          O  0.77492234  0.55387085  0.69661889    -0.75300
O8          O  0.70094376  0.45023881  0.77041433    -0.74100
Cu9        Cu  0.79762235  0.50195410  0.79365988     1.04600
Cu10       Cu  0.73627627  0.50191562  0.73151710     1.04300
C11         C  0.71684811  0.43437695  0.81173559     0.92200
C12         C  0.81527194  0.57059428  0.71359007     0.91400
C13         C  0.71856732  0.57188533  0.80997544     0.83500
C14         C  0.81543575  0.43196826  0.71477604     0.89800
O15         O  0.46590122  0.80756382  0.75212522    -0.74000
O16         O  0.57010850  0.73528340  0.83042971    -0.74900
O17         O  0.56950163  0.80869972  0.75430031    -0.63600
O18         O  0.46576223  0.73425852  0.82881931    -0.72000
O19         O  0.46693827  0.67620020  0.77119810    -0.71500
O20         O  0.57096086  0.74963849  0.69769600    -0.62800
O21         O  0.57137648  0.67747668  0.77261318    -0.75300
O22         O  0.46690157  0.74817682  0.69589125    -0.74100
Cu23       Cu  0.51768663  0.77352448  0.79351459     1.04600
Cu24       Cu  0.51905749  0.71080325  0.73252059     1.04300
C25         C  0.45059376  0.78948013  0.71139404     0.92200
C26         C  0.58745887  0.69499422  0.81319627     0.91400
C27         C  0.58627596  0.79094861  0.71412052     0.83500
C28         C  0.45003745  0.69343006  0.81152275     0.89800
O29         O  0.82711275  0.73722961  0.46623522    -0.74000
O30         O  0.75151594  0.81266689  0.56943757    -0.74900
O31         O  0.82765938  0.73961929  0.57054647    -0.63600
O32         O  0.75118672  0.81079490  0.46476747    -0.72000
O33         O  0.69506953  0.75162043  0.46554420    -0.71500
O34         O  0.77064171  0.68131434  0.57176294    -0.62800
O35         O  0.69579058  0.75307277  0.57038580    -0.75300
O36         O  0.76958969  0.67937682  0.46732641    -0.74100
Cu37       Cu  0.79137920  0.77725131  0.51765892     1.04600
Cu38       Cu  0.73086289  0.71438379  0.51878613     1.04300
C39         C  0.81001966  0.69615653  0.45083601     0.92200
C40         C  0.71177560  0.79427954  0.58627687     0.91400
C41         C  0.81107136  0.69906445  0.58765563     0.83500
C42         C  0.71112299  0.79243117  0.44855789     0.89800
C43         C  0.37001711  0.89390037  0.36943530     0.79200
N44         N  0.40352364  0.86916044  0.34173562    -0.79100
C45         C  0.40937144  0.81975117  0.34727315     0.81700
N46         N  0.38204957  0.79527023  0.38099126    -0.79000
C47         C  0.34786148  0.81942270  0.40804191     0.81700
N48         N  0.34205688  0.86886835  0.40243970    -0.80800
C49         C  0.37110369  0.10658199  0.37106794     0.79200
N50         N  0.34367628  0.13141346  0.40468827    -0.79100
C51         C  0.35014876  0.18062530  0.41116933     0.81700
N52         N  0.38448891  0.20474528  0.38440250    -0.79000
C53         C  0.41132412  0.18043209  0.35012171     0.81700
N54         N  0.40478261  0.13126972  0.34367076    -0.80800
O55         O  0.46603789  0.18936995  0.28249268    -0.74000
O56         O  0.56949524  0.26502983  0.20881682    -0.74900
O57         O  0.57005816  0.19031692  0.28377528    -0.63600
O58         O  0.46592544  0.26405448  0.20782864    -0.72000
O59         O  0.46492182  0.32110241  0.26647061    -0.71500
O60         O  0.56940690  0.24874584  0.34102630    -0.62800
O61         O  0.56875044  0.32214254  0.26741880    -0.75300
O62         O  0.46519100  0.24775349  0.33981957    -0.74100
Cu63       Cu  0.51795698  0.22505006  0.24367965     1.04600
Cu64       Cu  0.51704300  0.28686566  0.30566619     1.04300
C65         C  0.44924167  0.20698233  0.32273164     0.92200
C66         C  0.58500330  0.30577838  0.22650543     0.91400
C67         C  0.58606733  0.20804380  0.32436395     0.83500
C68         C  0.44924959  0.30443039  0.22539701     0.89800
C69         C  0.66008946  0.89359131  0.37221425     0.79200
N70         N  0.62680906  0.86892392  0.34415958    -0.79100
C71         C  0.62131256  0.81939042  0.34931238     0.81700
N72         N  0.64864341  0.79473602  0.38331492    -0.79000
C73         C  0.68273077  0.81890025  0.41066784     0.81700
N74         N  0.68832013  0.86825472  0.40493028    -0.80800
C75         C  0.66300173  0.10695807  0.37416287     0.79200
N76         N  0.69156550  0.13187282  0.40685035    -0.79100
C77         C  0.68586400  0.18121067  0.41307745     0.81700
N78         N  0.65134434  0.20566933  0.38640311    -0.79000
C79         C  0.62370991  0.18136579  0.35256266     0.81700
N80         N  0.62935662  0.13196127  0.34683677    -0.80800
O81         O  0.69865913  0.24617001  0.57270691    -0.74000
O82         O  0.77084662  0.32121205  0.46951924    -0.74900
O83         O  0.69770422  0.24804480  0.46809982    -0.63600
O84         O  0.77163861  0.31942344  0.57398545    -0.72000
O85         O  0.82958481  0.26183125  0.57294917    -0.71500
O86         O  0.75457127  0.18938738  0.46699485    -0.62800
O87         O  0.82917284  0.26395676  0.46856393    -0.75300
O88         O  0.75520633  0.18715572  0.57160304    -0.74100
Cu89       Cu  0.73277773  0.28562951  0.52112727     1.04600
Cu90       Cu  0.79422729  0.22344713  0.51995824     1.04300
C91         C  0.71521623  0.20503473  0.58843981     0.92200
C92         C  0.81145883  0.30474377  0.45297565     0.91400
C93         C  0.71422339  0.20746623  0.45097393     0.83500
C94         C  0.81228093  0.30222559  0.58995292     0.89800
C95         C  0.66121352  0.89334094  0.66513529     0.82800
N96         N  0.62838761  0.86770812  0.69262388    -0.79100
C97         C  0.62308025  0.81842548  0.68602352     0.81700
N98         N  0.65021084  0.79501972  0.65131730    -0.79000
C99         C  0.68369286  0.82022266  0.62430826     0.81700
N100        N  0.68903175  0.86950235  0.63112638    -0.80800
C101        C  0.66392020  0.10548320  0.66624010     0.79200
N102        N  0.69207331  0.12928797  0.63246953    -0.79100
C103        C  0.68740095  0.17879380  0.62636211     0.81700
N104        N  0.65427425  0.20413204  0.65366281    -0.79000
C105        C  0.62687784  0.18081754  0.68806208     0.81700
N106        N  0.63146686  0.13136237  0.69406939    -0.80800
C107        C  0.38097065  0.89246302  0.65519821     0.79200
N108        N  0.35191671  0.86812852  0.62257444    -0.79100
C109        C  0.35446322  0.81825932  0.61894384     0.81700
N110        N  0.38669232  0.79288946  0.64767339    -0.79000
C111        C  0.41488291  0.81688540  0.68128331     0.81700
N112        N  0.41202263  0.86672376  0.68479615    -0.80800
C113        C  0.38361889  0.10498509  0.65821414     0.79200
N114        N  0.41528663  0.13031843  0.68753141    -0.79100
C115        C  0.41838435  0.18020278  0.68387443     0.81700
N116        N  0.39002610  0.20441826  0.65054305    -0.79000
C117        C  0.35740299  0.17946795  0.62218179     0.81700
N118        N  0.35447808  0.12970304  0.62590432    -0.80800
O119        O  0.57291148  0.32429546  0.77020638    -0.74000
O120        O  0.47005898  0.24901555  0.69665204    -0.74900
O121        O  0.46859885  0.32364694  0.76944581    -0.63600
O122        O  0.57399632  0.24929957  0.69817581    -0.72000
O123        O  0.57356815  0.19171453  0.75634643    -0.71500
O124        O  0.46850856  0.26682410  0.82832829    -0.62800
O125        O  0.47004181  0.19088063  0.75422986    -0.75300
O126        O  0.57238150  0.26799471  0.82957752    -0.74100
Cu127      Cu  0.52138900  0.28851477  0.73165310     1.04600
Cu128      Cu  0.52110671  0.22733314  0.79426964     1.04300
C129        C  0.58867723  0.30833107  0.81152037     0.92200
C130        C  0.45436763  0.20790775  0.71317262     0.91400
C131        C  0.45220242  0.30717336  0.81030933     0.83500
C132        C  0.58994732  0.20859781  0.71568123     0.89800
O133        O  0.20790760  0.26328199  0.46905918    -0.74000
O134        O  0.28721390  0.18781137  0.57023977    -0.74900
O135        O  0.21114114  0.26079341  0.57328623    -0.63600
O136        O  0.28309160  0.18920345  0.46616829    -0.72000
O137        O  0.33963028  0.24804757  0.46552171    -0.71500
O138        O  0.26792902  0.31939547  0.57267507    -0.62800
O139        O  0.34271631  0.24762157  0.56994078    -0.75300
O140        O  0.26572498  0.32080923  0.46817344    -0.74100
Cu141      Cu  0.24529398  0.22315335  0.51973291     1.04600
Cu142      Cu  0.30591144  0.28597545  0.51905053     1.04300
C143        C  0.22478050  0.30411136  0.45272547     0.92200
C144        C  0.32755656  0.20612821  0.58586048     0.91400
C145        C  0.22807702  0.30146974  0.58962157     0.83500
C146        C  0.32285670  0.20722668  0.44924118     0.89800
C147        C  0.66203058  0.36136420  0.91328722     0.79200
N148        N  0.69134293  0.39348025  0.88855225    -0.79100
C149        C  0.68751939  0.39779674  0.83879359     0.81700
N150        N  0.65395456  0.37020660  0.81412795    -0.79000
C151        C  0.62548173  0.33722168  0.83848572     0.81700
N152        N  0.62943168  0.33310931  0.88811491    -0.80800
C153        C  0.65870500  0.35922094  0.12547091     0.79200
N154        N  0.62604415  0.33058624  0.15010539    -0.79100
C155        C  0.62154194  0.33474106  0.19972245     0.81700
N156        N  0.64921080  0.36806976  0.22442779    -0.79000
C157        C  0.68260910  0.39596870  0.20023109     0.81700
N158        N  0.68722197  0.39164112  0.15064616    -0.80800
O159        O  0.82621089  0.44733054  0.28485571    -0.74000
O160        O  0.75294705  0.55269206  0.21089204    -0.74900
O161        O  0.82682605  0.55123719  0.28536097    -0.63600
O162        O  0.75167529  0.44852120  0.21005634    -0.72000
O163        O  0.69477581  0.44853819  0.26850339    -0.71500
O164        O  0.76841883  0.55203380  0.34231219    -0.62800
O165        O  0.69548573  0.55324233  0.26876576    -0.75300
O166        O  0.76816040  0.44751597  0.34213044    -0.74100
Cu167      Cu  0.79143243  0.49987804  0.24571992     1.04600
Cu168      Cu  0.72969747  0.50028350  0.30741676     1.04300
C169        C  0.80893203  0.43132607  0.32551389     0.92200
C170        C  0.71276674  0.56956846  0.22824147     0.91400
C171        C  0.80926023  0.56773537  0.32571047     0.83500
C172        C  0.71118967  0.43260033  0.22748289     0.89800
C173        C  0.67033945  0.64838734  0.91191577     0.79200
N174        N  0.63444619  0.67448929  0.88845359    -0.79100
C175        C  0.62680613  0.66828847  0.83926151     0.81700
N176        N  0.65445046  0.63517295  0.81397830    -0.79000
C177        C  0.69091778  0.60986806  0.83681644     0.81700
N178        N  0.69890881  0.61688269  0.88559605    -0.80800
C179        C  0.66651017  0.64624278  0.12550076     0.79200
N180        N  0.63095329  0.67303219  0.14851914    -0.79100
C181        C  0.62280288  0.66700864  0.19761206     0.81700
N182        N  0.64953354  0.63343192  0.22328459    -0.79000
C183        C  0.68561101  0.60740393  0.20086524     0.81700
N184        N  0.69420001  0.61420618  0.15219121    -0.80800
C185        C  0.37206539  0.64323450  0.91129225     0.79200
N186        N  0.40615746  0.67070850  0.88720726    -0.79100
C187        C  0.41214212  0.66560059  0.83780136     0.81700
N188        N  0.38445987  0.63248691  0.81280766    -0.79000
C189        C  0.34977749  0.60570067  0.83643238     0.81700
N190        N  0.34378121  0.61093212  0.88577129    -0.80800
C191        C  0.36968404  0.64305723  0.12346064     0.79200
N192        N  0.34193000  0.61009675  0.14873344    -0.79100
C193        C  0.34779149  0.60488792  0.19813733     0.81700
N194        N  0.38195002  0.63242390  0.22201079    -0.79000
C195        C  0.40910552  0.66619788  0.19717523     0.81700
N196        N  0.40312123  0.67115984  0.14778558    -0.80800
O197        O  0.46345214  0.75232098  0.33679425    -0.74000
O198        O  0.56767050  0.67829045  0.26393862    -0.74900
O199        O  0.56763086  0.75191216  0.33734156    -0.63600
O200        O  0.46336208  0.67821642  0.26423494    -0.72000
O201        O  0.46345505  0.73482743  0.20517965    -0.71500
O202        O  0.56774596  0.81032399  0.28006583    -0.62800
O203        O  0.56785906  0.73522363  0.20518226    -0.75300
O204        O  0.46359030  0.81044726  0.27918563    -0.74100
Cu205      Cu  0.51554079  0.71326309  0.30249179     1.04600
Cu206      Cu  0.51566606  0.77479845  0.24025911     1.04300
C207        C  0.44717947  0.79303094  0.31965575     0.92200
C208        C  0.58420334  0.69485829  0.22318402     0.91400
C209        C  0.58391206  0.79272541  0.32073098     0.83500
C210        C  0.44697454  0.69458403  0.22332477     0.89800
C211        C  0.37500805  0.35721937  0.91084899     0.79200
N212        N  0.34602118  0.38928631  0.88552147    -0.79100
C213        C  0.35158968  0.39500230  0.83617562     0.81700
N214        N  0.38636887  0.36848871  0.81213672    -0.79000
C215        C  0.41447436  0.33528307  0.83679010     0.81700
N216        N  0.40897742  0.32997417  0.88625787    -0.80800
C217        C  0.37345571  0.35578577  0.12414607     0.79200
N218        N  0.40691748  0.32790248  0.14889448    -0.79100
C219        C  0.41185825  0.33257269  0.19849268     0.81700
N220        N  0.38385776  0.36576596  0.22309901    -0.79000
C221        C  0.34963665  0.39289756  0.19896462     0.81700
N222        N  0.34449560  0.38783733  0.14946901    -0.80800
C223        C  0.91425716  0.35095689  0.66590170     0.79200
N224        N  0.89058880  0.38587974  0.69308084    -0.79100
C225        C  0.84146790  0.39303181  0.68736397     0.81700
N226        N  0.81641861  0.36558610  0.65395311    -0.79000
C227        C  0.83948599  0.32998169  0.62756455     0.81700
N228        N  0.88838403  0.32282768  0.63360396    -0.80800
C229        C  0.12650238  0.34917329  0.66622736     0.79200
N230        N  0.15236631  0.32101476  0.63396597    -0.79100
C231        C  0.20109646  0.32867992  0.62746418     0.81700
N232        N  0.22396477  0.36462779  0.65329597    -0.79000
C233        C  0.19888428  0.39197877  0.68660148     0.81700
N234        N  0.14999057  0.38450750  0.69282127    -0.80800
O235        O  0.20700620  0.44778984  0.75364866    -0.74000
O236        O  0.28134081  0.55252519  0.82688599    -0.74900
O237        O  0.20648357  0.55251346  0.75261141    -0.63600
O238        O  0.28238827  0.44823520  0.82721966    -0.72000
O239        O  0.33881483  0.44832556  0.76835211    -0.71500
O240        O  0.26438693  0.55243927  0.69522440    -0.62800
O241        O  0.33799838  0.55284543  0.76820017    -0.75300
O242        O  0.26476148  0.44765389  0.69605952    -0.74100
Cu243      Cu  0.24220546  0.50029312  0.79215806     1.04600
Cu244      Cu  0.30336905  0.50033995  0.72993032     1.04300
C245        C  0.22454763  0.43102633  0.71342199     0.92200
C246        C  0.32152855  0.56883844  0.80919536     0.91400
C247        C  0.22388604  0.56893195  0.71209424     0.83500
C248        C  0.32270790  0.43207782  0.80935839     0.89800
C249        C  0.91307016  0.65208362  0.66527379     0.79200
N250        N  0.88753641  0.67941882  0.63189507    -0.79100
C251        C  0.83862226  0.67191263  0.62559185     0.81700
N252        N  0.81567393  0.63648946  0.65224208    -0.79000
C253        C  0.84068796  0.60961964  0.68617949     0.81700
N254        N  0.88947358  0.61730751  0.69242624    -0.80800
C255        C  0.12463308  0.64894677  0.66317668     0.79200
N256        N  0.14959555  0.67605562  0.62942861    -0.79100
C257        C  0.19843933  0.66867540  0.62277732     0.81700
N258        N  0.22204391  0.63374474  0.64964951    -0.79000
C259        C  0.19764380  0.60718031  0.68413337     0.81700
N260        N  0.14878056  0.61458780  0.69058845    -0.80800
O261        O  0.20811085  0.73696945  0.56872328    -0.74000
O262        O  0.28038378  0.81036462  0.46265256    -0.74900
O263        O  0.20550052  0.73613503  0.46435769    -0.63600
O264        O  0.28414566  0.81034307  0.56689095    -0.72000
O265        O  0.33986252  0.75056446  0.56608687    -0.71500
O266        O  0.26353788  0.67861653  0.46335919    -0.62800
O267        O  0.33701345  0.75143047  0.46161615    -0.75300
O268        O  0.26524350  0.67854251  0.56782652    -0.74100
Cu269      Cu  0.24244555  0.77558105  0.51571915     1.04600
Cu270      Cu  0.30329854  0.71280850  0.51466094     1.04300
C271        C  0.22517844  0.69613053  0.58478466     0.92200
C272        C  0.32027267  0.79248012  0.44569189     0.91400
C273        C  0.22265057  0.69545686  0.44782035     0.83500
C274        C  0.32458583  0.79190771  0.58237976     0.89800
C275        C  0.91039543  0.64283728  0.37611708     0.79200
N276        N  0.88538415  0.60963762  0.34840658    -0.79100
C277        C  0.83618594  0.60489487  0.35373830     0.81700
N278        N  0.81214884  0.63312312  0.38709266    -0.79000
C279        C  0.83667847  0.66719383  0.41404732     0.81700
N280        N  0.88594758  0.67180505  0.40880008    -0.80800
C281        C  0.12152726  0.64268186  0.37349803     0.79200
N282        N  0.14633371  0.67156356  0.40598745    -0.79100
C283        C  0.19565838  0.66688829  0.41083328     0.81700
N284        N  0.21991659  0.63279545  0.38360003    -0.79000
C285        C  0.19564808  0.60456851  0.35038441     0.81700
N286        N  0.14628454  0.60937585  0.34550361    -0.80800
C287        C  0.91125163  0.35797480  0.37777922     0.79200
N288        N  0.88702750  0.32935845  0.41082119    -0.79100
C289        C  0.83766844  0.33357104  0.41583484     0.81700
N290        N  0.81268367  0.36679034  0.38808363    -0.79000
C291        C  0.83635058  0.39457662  0.35414039     0.81700
N292        N  0.88574844  0.39030189  0.34919374    -0.80800
C293        C  0.12303653  0.35717091  0.37890684     0.79200
N294        N  0.14786857  0.38924687  0.34964977    -0.79100
C295        C  0.19730984  0.39348429  0.35362704     0.81700
N296        N  0.22174124  0.36584022  0.38735697    -0.79000
C297        C  0.19746631  0.33278620  0.41584387     0.81700
N298        N  0.14797128  0.32864990  0.41174155    -0.80800
O299        O  0.28054017  0.44589044  0.20839553    -0.74000
O300        O  0.20519395  0.55019516  0.28220120    -0.74900
O301        O  0.27980554  0.55043708  0.20770552    -0.63600
O302        O  0.20626611  0.44586246  0.28356584    -0.72000
O303        O  0.26478516  0.44663383  0.34050848    -0.71500
O304        O  0.33681777  0.55137325  0.26616170    -0.62800
O305        O  0.26352224  0.55125953  0.33935850    -0.75300
O306        O  0.33771740  0.44656452  0.26670836    -0.74100
Cu307      Cu  0.24088536  0.49802447  0.24335742     1.04600
Cu308      Cu  0.30266287  0.49896125  0.30512348     1.04300
C309        C  0.32110978  0.43001442  0.22593576     0.92200
C310        C  0.22262140  0.56699744  0.32252637     0.91400
C311        C  0.31998705  0.56729305  0.22523662     0.83500
C312        C  0.22400910  0.43017908  0.32430414     0.89800
C313        C  0.99127341  0.31454343  0.36402648    -0.02900
C314        C  0.96540430  0.35770375  0.37686686     0.06800
C315        C  0.99139814  0.40028289  0.39124483    -0.03000
C316        C  0.04297021  0.39980227  0.39228525    -0.03000
C317        C  0.06888377  0.35697171  0.37834550     0.07000
C318        C  0.04294875  0.31422571  0.36462650    -0.03200
Br319      Br  0.07827292  0.25564374  0.34547223    -0.01700
Br320      Br  0.95590056  0.25626943  0.34428620    -0.01800
Br321      Br  0.07798077  0.45696433  0.41604125    -0.01800
Br322      Br  0.95646884  0.45863282  0.41231161    -0.01700
C323        C  0.99074335  0.62520225  0.41579550    -0.02900
C324        C  0.96431374  0.64317584  0.37492533     0.06800
C325        C  0.98944829  0.65962789  0.33275355    -0.03000
C326        C  0.04109304  0.65967260  0.33210578    -0.03000
C327        C  0.06751186  0.64289014  0.37349328     0.07000
C328        C  0.04224033  0.62510346  0.41511074    -0.03200
Br329      Br  0.07812279  0.59838238  0.47043270    -0.01700
Br330      Br  0.95634280  0.59805283  0.47169341    -0.01800
Br331      Br  0.07567422  0.68397781  0.27522912    -0.01800
Br332      Br  0.95299452  0.68276361  0.27634381    -0.01700
C333        C  0.99378666  0.69237714  0.68523350    -0.02900
C334        C  0.96717529  0.65277857  0.66487573     0.06800
C335        C  0.99233396  0.61299069  0.64306438    -0.03000
C336        C  0.04380938  0.61189837  0.64298719    -0.03000
C337        C  0.07056597  0.65091384  0.66415016     0.07000
C338        C  0.04556312  0.69163209  0.68448161    -0.03200
Br339      Br  0.08234196  0.74588506  0.71160106    -0.01700
Br340      Br  0.95931759  0.74681982  0.71498363    -0.01800
Br341      Br  0.07773196  0.55770471  0.61183802    -0.01800
Br342      Br  0.95613102  0.56075347  0.61121531    -0.01700
C343        C  0.99446167  0.33702140  0.70991620    -0.02900
C344        C  0.96854933  0.34809093  0.66625308     0.06800
C345        C  0.99474802  0.35760690  0.62243086    -0.03000
C346        C  0.04630902  0.35678361  0.62244465    -0.03000
C347        C  0.07228337  0.34681367  0.66636454     0.07000
C348        C  0.04624117  0.33675119  0.71006621    -0.03200
Br349      Br  0.08153665  0.32104471  0.76970148    -0.01700
Br350      Br  0.95900710  0.31995585  0.76888556    -0.01800
Br351      Br  0.08112567  0.37242885  0.56238047    -0.01800
Br352      Br  0.96041555  0.37471614  0.56241243    -0.01700
C353        C  0.38174702  0.40035104  0.99191545    -0.02900
C354        C  0.37353622  0.35637231  0.96537241     0.06800
C355        C  0.36566596  0.31189709  0.99113069    -0.03000
C356        C  0.36524011  0.31156035  0.04309694    -0.03000
C357        C  0.37268500  0.35570279  0.06957234     0.07000
C358        C  0.38132931  0.40002558  0.04371260    -0.03200
Br359      Br  0.39617658  0.46014742  0.07893464    -0.01700
Br360      Br  0.39710182  0.46087948  0.95762771    -0.01800
Br361      Br  0.35291715  0.25080165  0.07790217    -0.01800
Br362      Br  0.35392983  0.25162165  0.95528463    -0.01700
C363        C  0.40951086  0.62167186  0.99203927    -0.02900
C364        C  0.37054914  0.64327718  0.96553087     0.06800
C365        C  0.32989356  0.66285851  0.99089823    -0.03000
C366        C  0.32911593  0.66250053  0.04281121    -0.03000
C367        C  0.36912186  0.64282277  0.06922453     0.07000
C368        C  0.40889015  0.62162072  0.04375912    -0.03200
Br369      Br  0.46153819  0.59028686  0.07982328    -0.01700
Br370      Br  0.46255462  0.58962739  0.95744011    -0.01800
Br371      Br  0.27368998  0.68926661  0.07782770    -0.01800
Br372      Br  0.27575190  0.69062870  0.95445951    -0.01700
C373        C  0.67789227  0.69258844  0.99331868    -0.02900
C374        C  0.67337408  0.64819978  0.96656594     0.06800
C375        C  0.66995650  0.60300750  0.99236487    -0.03000
C376        C  0.66898942  0.60245918  0.04416377    -0.03000
C377        C  0.67111464  0.64713333  0.07098252     0.07000
C378        C  0.67647185  0.69210250  0.04532447    -0.03200
Br379      Br  0.68424110  0.75289502  0.08142419    -0.01700
Br380      Br  0.68894566  0.75376580  0.95883533    -0.01800
Br381      Br  0.66172342  0.53976675  0.07756031    -0.01800
Br382      Br  0.66363821  0.54109676  0.95736580    -0.01700
C383        C  0.70073092  0.33927481  0.99400581    -0.02900
C384        C  0.66168917  0.36076345  0.96756935     0.06800
C385        C  0.62153493  0.38131973  0.99306356    -0.03000
C386        C  0.62059491  0.38059238  0.04483094    -0.03000
C387        C  0.65958619  0.35892351  0.07125914     0.07000
C388        C  0.69962145  0.33826627  0.04585839    -0.03200
Br389      Br  0.75203971  0.30730556  0.08227901    -0.01700
Br390      Br  0.75479534  0.30982516  0.95904003    -0.01800
Br391      Br  0.56662109  0.41084059  0.07964540    -0.01800
Br392      Br  0.56829153  0.41171695  0.95710197    -0.01700
C393        C  0.40038619  0.97316959  0.61561421    -0.02900
C394        C  0.38148107  0.94679989  0.65610739     0.06800
C395        C  0.36451870  0.97239283  0.69789117    -0.03000
C396        C  0.36552986  0.02428032  0.69886385    -0.03000
C397        C  0.38373616  0.05063875  0.65814818     0.07000
C398        C  0.40160366  0.02500257  0.61668507    -0.03200
Br399      Br  0.42968246  0.06086718  0.56211437    -0.01700
Br400      Br  0.42661396  0.93829521  0.55948006    -0.01800
Br401      Br  0.34046839  0.05938550  0.75520197    -0.01800
Br402      Br  0.33850851  0.93625377  0.75312739    -0.01700
C403        C  0.70118286  0.97269436  0.68931290    -0.02900
C404        C  0.66171202  0.94751276  0.66731195     0.06800
C405        C  0.62268721  0.97417244  0.64601418    -0.03000
C406        C  0.62348192  0.02594052  0.64606035    -0.03000
C407        C  0.66322328  0.05123569  0.66755942     0.07000
C408        C  0.70190382  0.02463030  0.68950501    -0.03200
Br409      Br  0.75496227  0.05946522  0.72089193    -0.01700
Br410      Br  0.75337039  0.93587103  0.72019428    -0.01800
Br411      Br  0.57072796  0.06222191  0.61518772    -0.01800
Br412      Br  0.56873389  0.93969915  0.61534541    -0.01700
C413        C  0.65232376  0.97412554  0.41612914    -0.02900
C414        C  0.66132510  0.94817582  0.37196189     0.06800
C415        C  0.67030784  0.97460526  0.32811771    -0.03000
C416        C  0.67141580  0.02661412  0.32872239    -0.03000
C417        C  0.66375106  0.05240867  0.37320267     0.07000
C418        C  0.65383358  0.02592379  0.41682191    -0.03200
Br419      Br  0.63872089  0.06038911  0.47731224    -0.01700
Br420      Br  0.63385577  0.93911886  0.47532566    -0.01800
Br421      Br  0.68472546  0.06244900  0.26879766    -0.01800
Br422      Br  0.68220865  0.93967302  0.26739172    -0.01700
C423        C  0.41064711  0.97398699  0.38740525    -0.02900
C424        C  0.36952307  0.94830479  0.36920394     0.06800
C425        C  0.32812402  0.97470930  0.35249953    -0.03000
C426        C  0.32835032  0.02671319  0.35297210    -0.03000
C427        C  0.37004472  0.05225059  0.36997280     0.07000
C428        C  0.41094335  0.02576359  0.38769789    -0.03200
Br429      Br  0.46656895  0.06042090  0.41502758    -0.01700
Br430      Br  0.46573180  0.93827729  0.41468393    -0.01800
Br431      Br  0.27210884  0.06304641  0.32952611    -0.01800
Br432      Br  0.27168993  0.93960994  0.32805631    -0.01700
loop_ 
_geom_bond_atom_site_label_1 
_geom_bond_atom_site_label_2 
_geom_bond_distance 
_geom_bond_site_symmetry_2 
_ccdc_geom_bond_type 
O1           Cu9   2.030       .  S
O1           C11   1.280       .  A
O2           Cu9   2.024       .  S
O2           C12   1.279       .  A
O3           Cu9   2.017       .  S
O3           C13   1.279       .  A
O4           Cu9   2.026       .  S
O4           C14   1.279       .  A
O5          Cu10   2.012       .  S
O5           C14   1.278       .  A
O6          Cu10   2.009       .  S
O6           C13   1.277       .  A
O7          Cu10   2.001       .  S
O7           C12   1.277       .  A
O8          Cu10   2.004       .  S
O8           C11   1.277       .  A
Cu9         Cu10   2.374       .  S
C11         C149   1.473       .  S
C12         C253   1.469       .  S
C13         C177   1.470       .  S
C14         C225   1.474       .  S
O15         Cu23   2.025       .  S
O15          C25   1.280       .  A
O16         Cu23   2.028       .  S
O16          C26   1.279       .  A
O17         Cu23   2.013       .  S
O17          C27   1.278       .  A
O18         Cu23   2.017       .  S
O18          C28   1.278       .  A
O19         Cu24   2.003       .  S
O19          C28   1.277       .  A
O20         Cu24   2.004       .  S
O20          C27   1.277       .  A
O21         Cu24   2.007       .  S
O21          C26   1.278       .  A
O22         Cu24   2.008       .  S
O22          C25   1.277       .  A
Cu23        Cu24   2.375       .  S
C25         C111   1.471       .  S
C26         C175   1.474       .  S
C27          C97   1.466       .  S
C28         C187   1.467       .  S
O29         Cu37   2.020       .  S
O29          C39   1.279       .  A
O30         Cu37   2.021       .  S
O30          C40   1.279       .  A
O31         Cu37   2.019       .  S
O31          C41   1.278       .  A
O32         Cu37   2.021       .  S
O32          C42   1.279       .  A
O33         Cu38   2.014       .  S
O33          C42   1.278       .  A
O34         Cu38   2.011       .  S
O34          C41   1.278       .  A
O35         Cu38   1.995       .  S
O35          C40   1.276       .  A
O36         Cu38   1.993       .  S
O36          C39   1.275       .  A
Cu37        Cu38   2.376       .  S
C39         C279   1.465       .  S
C40          C99   1.466       .  S
C41         C251   1.471       .  S
C42          C73   1.473       .  S
C43         C424   1.476       .  S
C43          N44   1.361       .  A
C43          N48   1.360       .  A
N44          C45   1.358       .  A
C45         C207   1.467       .  S
C45          N46   1.356       .  A
N46          C47   1.356       .  A
C47         C272   1.466       .  S
C47          N48   1.359       .  A
C49         C427   1.475       .  S
C49          N50   1.359       .  A
C49          N54   1.360       .  A
N50          C51   1.358       .  A
C51         C146   1.465       .  S
C51          N52   1.356       .  A
N52          C53   1.356       .  A
C53          C65   1.465       .  S
C53          N54   1.357       .  A
O55         Cu63   2.015       .  S
O55          C65   1.278       .  A
O56         Cu63   2.014       .  S
O56          C66   1.278       .  A
O57         Cu63   2.020       .  S
O57          C67   1.279       .  A
O58         Cu63   2.018       .  S
O58          C68   1.278       .  A
O59         Cu64   2.002       .  S
O59          C68   1.277       .  A
O60         Cu64   2.005       .  S
O60          C67   1.277       .  A
O61         Cu64   1.998       .  S
O61          C66   1.276       .  A
O62         Cu64   1.999       .  S
O62          C65   1.276       .  A
Cu63        Cu64   2.377       .  S
C66         C155   1.464       .  S
C67          C79   1.469       .  S
C68         C219   1.467       .  S
C69         C414   1.481       .  S
C69          N70   1.361       .  A
C69          N74   1.360       .  A
N70          C71   1.360       .  A
C71         C209   1.472       .  S
C71          N72   1.361       .  A
N72          C73   1.359       .  A
C73          N74   1.357       .  A
C75         C417   1.480       .  S
C75          N76   1.361       .  A
C75          N80   1.359       .  A
N76          C77   1.358       .  A
C77          C93   1.471       .  S
C77          N78   1.359       .  A
N78          C79   1.359       .  A
C79          N80   1.358       .  A
O81         Cu89   1.995       .  S
O81          C91   1.276       .  A
O82         Cu89   1.995       .  S
O82          C92   1.276       .  A
O83         Cu89   2.007       .  S
O83          C93   1.277       .  A
O84         Cu89   2.006       .  S
O84          C94   1.277       .  A
O85         Cu90   2.021       .  S
O85          C94   1.279       .  A
O86         Cu90   2.023       .  S
O86          C93   1.280       .  A
O87         Cu90   2.018       .  S
O87          C92   1.278       .  A
O88         Cu90   2.019       .  S
O88          C91   1.278       .  A
Cu89        Cu90   2.376       .  S
C91         C103   1.465       .  S
C92         C289   1.464       .  S
C94         C227   1.470       .  S
C95         C404   1.471       .  S
C95          N96   1.359       .  A
C95         N100   1.359       .  A
N96          C97   1.357       .  A
C97          N98   1.356       .  A
N98          C99   1.358       .  A
C99         N100   1.358       .  A
C101        C407   1.472       .  S
C101        N102   1.361       .  A
C101        N106   1.359       .  A
N102        C103   1.359       .  A
C103        N104   1.356       .  A
N104        C105   1.354       .  A
C105        C132   1.465       .  S
C105        N106   1.357       .  A
C107        C394   1.474       .  S
C107        N108   1.360       .  A
C107        N112   1.359       .  A
N108        C109   1.358       .  A
C109        C274   1.470       .  S
C109        N110   1.360       .  A
N110        C111   1.359       .  A
C111        N112   1.358       .  A
C113        C397   1.474       .  S
C113        N114   1.361       .  A
C113        N118   1.359       .  A
N114        C115   1.360       .  A
C115        C130   1.470       .  S
C115        N116   1.358       .  A
N116        C117   1.358       .  A
C117        C144   1.467       .  S
C117        N118   1.356       .  A
O119       Cu127   2.003       .  S
O119        C129   1.276       .  A
O120       Cu127   2.003       .  S
O120        C130   1.277       .  A
O121       Cu127   2.009       .  S
O121        C131   1.278       .  A
O122       Cu127   2.004       .  S
O122        C132   1.277       .  A
O123       Cu128   2.010       .  S
O123        C132   1.277       .  A
O124       Cu128   2.015       .  S
O124        C131   1.278       .  A
O125       Cu128   2.025       .  S
O125        C130   1.279       .  A
O126       Cu128   2.023       .  S
O126        C129   1.280       .  A
Cu127      Cu128   2.376       .  S
C129        C151   1.469       .  S
C131        C215   1.469       .  S
O133       Cu141   2.027       .  S
O133        C143   1.280       .  A
O134       Cu141   2.024       .  S
O134        C144   1.280       .  A
O135       Cu141   2.007       .  S
O135        C145   1.276       .  A
O136       Cu141   2.007       .  S
O136        C146   1.277       .  A
O137       Cu142   2.005       .  S
O137        C146   1.278       .  A
O138       Cu142   2.005       .  S
O138        C145   1.278       .  A
O139       Cu142   1.998       .  S
O139        C144   1.276       .  A
O140       Cu142   1.998       .  S
O140        C143   1.276       .  A
Cu141      Cu142   2.377       .  S
C143        C297   1.469       .  S
C145        C231   1.464       .  S
C147        C384   1.474       .  S
C147        N148   1.361       .  A
C147        N152   1.359       .  A
N148        C149   1.360       .  A
C149        N150   1.359       .  A
N150        C151   1.358       .  A
C151        N152   1.356       .  A
C153        C387   1.473       .  S
C153        N154   1.360       .  A
C153        N158   1.359       .  A
N154        C155   1.358       .  A
C155        N156   1.356       .  A
N156        C157   1.356       .  A
C157        C172   1.464       .  S
C157        N158   1.358       .  A
O159       Cu167   2.013       .  S
O159        C169   1.277       .  A
O160       Cu167   2.010       .  S
O160        C170   1.278       .  A
O161       Cu167   2.009       .  S
O161        C171   1.277       .  A
O162       Cu167   2.014       .  S
O162        C172   1.278       .  A
O163       Cu168   1.999       .  S
O163        C172   1.277       .  A
O164       Cu168   1.997       .  S
O164        C171   1.276       .  A
O165       Cu168   2.007       .  S
O165        C170   1.277       .  A
O166       Cu168   2.007       .  S
O166        C169   1.278       .  A
Cu167      Cu168   2.377       .  S
C169        C291   1.467       .  S
C170        C183   1.466       .  S
C171        C277   1.462       .  S
C173        C374   1.486       .  S
C173        N174   1.364       .  A
C173        N178   1.360       .  A
N174        C175   1.362       .  A
C175        N176   1.359       .  A
N176        C177   1.357       .  A
C177        N178   1.356       .  A
C179        C377   1.486       .  S
C179        N180   1.363       .  A
C179        N184   1.359       .  A
N180        C181   1.362       .  A
C181        C208   1.470       .  S
C181        N182   1.358       .  A
N182        C183   1.355       .  A
C183        N184   1.355       .  A
C185        C364   1.474       .  S
C185        N186   1.361       .  A
C185        N190   1.358       .  A
N186        C187   1.359       .  A
C187        N188   1.356       .  A
N188        C189   1.356       .  A
C189        C246   1.464       .  S
C189        N190   1.358       .  A
C191        C367   1.473       .  S
C191        N192   1.359       .  A
C191        N196   1.360       .  A
N192        C193   1.358       .  A
C193        C311   1.470       .  S
C193        N194   1.359       .  A
N194        C195   1.359       .  A
C195        C210   1.471       .  S
C195        N196   1.358       .  A
O197       Cu205   2.002       .  S
O197        C207   1.277       .  A
O198       Cu205   2.005       .  S
O198        C208   1.278       .  A
O199       Cu205   2.004       .  S
O199        C209   1.276       .  A
O200       Cu205   2.002       .  S
O200        C210   1.276       .  A
O201       Cu206   2.028       .  S
O201        C210   1.280       .  A
O202       Cu206   2.029       .  S
O202        C209   1.280       .  A
O203       Cu206   2.021       .  S
O203        C208   1.278       .  A
O204       Cu206   2.018       .  S
O204        C207   1.278       .  A
Cu205      Cu206   2.375       .  S
C211        C354   1.481       .  S
C211        N212   1.360       .  A
C211        N216   1.360       .  A
N212        C213   1.358       .  A
C213        C248   1.469       .  S
C213        N214   1.358       .  A
N214        C215   1.357       .  A
C215        N216   1.360       .  A
C217        C357   1.482       .  S
C217        N218   1.361       .  A
C217        N222   1.361       .  A
N218        C219   1.359       .  A
C219        N220   1.357       .  A
N220        C221   1.356       .  A
C221        C309   1.468       .  S
C221        N222   1.358       .  A
C223        C344   1.483       .  S
C223        N224   1.363       .  A
C223        N228   1.360       .  A
N224        C225   1.362       .  A
C225        N226   1.358       .  A
N226        C227   1.357       .  A
C227        N228   1.357       .  A
C229        C347   1.480       .  S
C229        N230   1.360       .  A
C229        N234   1.361       .  A
N230        C231   1.357       .  A
C231        N232   1.354       .  A
N232        C233   1.355       .  A
C233        C245   1.464       .  S
C233        N234   1.360       .  A
O235       Cu243   2.012       .  S
O235        C245   1.277       .  A
O236       Cu243   2.010       .  S
O236        C246   1.277       .  A
O237       Cu243   2.025       .  S
O237        C247   1.279       .  A
O238       Cu243   2.023       .  S
O238        C248   1.279       .  A
O239       Cu244   2.001       .  S
O239        C248   1.276       .  A
O240       Cu244   2.002       .  S
O240        C247   1.277       .  A
O241       Cu244   2.001       .  S
O241        C246   1.277       .  A
O242       Cu244   2.000       .  S
O242        C245   1.277       .  A
Cu243      Cu244   2.376       .  S
C247        C259   1.470       .  S
C249        C334   1.476       .  S
C249        N250   1.361       .  A
C249        N254   1.361       .  A
N250        C251   1.360       .  A
C251        N252   1.357       .  A
N252        C253   1.357       .  A
C253        N254   1.358       .  A
C255        C337   1.476       .  S
C255        N256   1.359       .  A
C255        N260   1.361       .  A
N256        C257   1.359       .  A
C257        C271   1.468       .  S
C257        N258   1.357       .  A
N258        C259   1.357       .  A
C259        N260   1.359       .  A
O261       Cu269   2.013       .  S
O261        C271   1.277       .  A
O262       Cu269   2.011       .  S
O262        C272   1.277       .  A
O263       Cu269   2.026       .  S
O263        C273   1.280       .  A
O264       Cu269   2.028       .  S
O264        C274   1.281       .  A
O265       Cu270   1.999       .  S
O265        C274   1.275       .  A
O266       Cu270   1.994       .  S
O266        C273   1.275       .  A
O267       Cu270   2.006       .  S
O267        C272   1.278       .  A
O268       Cu270   2.008       .  S
O268        C271   1.278       .  A
Cu269      Cu270   2.376       .  S
C273        C283   1.467       .  S
C275        C324   1.471       .  S
C275        N276   1.358       .  A
C275        N280   1.360       .  A
N276        C277   1.356       .  A
C277        N278   1.355       .  A
N278        C279   1.356       .  A
C279        N280   1.357       .  A
C281        C327   1.473       .  S
C281        N282   1.360       .  A
C281        N286   1.360       .  A
N282        C283   1.357       .  A
C283        N284   1.356       .  A
N284        C285   1.356       .  A
C285        C310   1.467       .  S
C285        N286   1.359       .  A
C287        C314   1.477       .  S
C287        N288   1.359       .  A
C287        N292   1.361       .  A
N288        C289   1.358       .  A
C289        N290   1.357       .  A
N290        C291   1.356       .  A
C291        N292   1.359       .  A
C293        C317   1.477       .  S
C293        N294   1.360       .  A
C293        N298   1.361       .  A
N294        C295   1.358       .  A
C295        C312   1.469       .  S
C295        N296   1.357       .  A
N296        C297   1.358       .  A
C297        N298   1.359       .  A
O299       Cu307   2.017       .  S
O299        C309   1.278       .  A
O300       Cu307   2.016       .  S
O300        C310   1.278       .  A
O301       Cu307   2.023       .  S
O301        C311   1.279       .  A
O302       Cu307   2.023       .  S
O302        C312   1.279       .  A
O303       Cu308   2.003       .  S
O303        C312   1.277       .  A
O304       Cu308   2.004       .  S
O304        C311   1.277       .  A
O305       Cu308   2.004       .  S
O305        C310   1.278       .  A
O306       Cu308   2.006       .  S
O306        C309   1.278       .  A
Cu307      Cu308   2.376       .  S
C313        C314   1.410       .  A
C313        C318   1.409   1_655  A
C313       Br320   1.929       .  S
C314        C315   1.411       .  A
C315        C316   1.407   1_655  A
C315       Br322   1.933       .  S
C316        C317   1.411       .  A
C316       Br321   1.933       .  S
C317        C318   1.409       .  A
C318       Br319   1.929       .  S
C323        C324   1.409       .  A
C323        C328   1.405   1_655  A
C323       Br330   1.932       .  S
C324        C325   1.409       .  A
C325        C326   1.409   1_655  A
C325       Br332   1.929       .  S
C326        C327   1.409       .  A
C326       Br331   1.928       .  S
C327        C328   1.410       .  A
C328       Br329   1.932       .  S
C333        C334   1.410       .  A
C333        C338   1.412   1_655  A
C333       Br340   1.928       .  S
C334        C335   1.409       .  A
C335        C336   1.404   1_655  A
C335       Br342   1.932       .  S
C336        C337   1.409       .  A
C336       Br341   1.932       .  S
C337        C338   1.410       .  A
C338       Br339   1.928       .  S
C343        C344   1.411       .  A
C343        C348   1.412   1_655  A
C343       Br350   1.929       .  S
C344        C345   1.413       .  A
C345        C346   1.406   1_655  A
C345       Br352   1.934       .  S
C346        C347   1.412       .  A
C346       Br351   1.936       .  S
C347        C348   1.411       .  A
C348       Br349   1.930       .  S
C353        C354   1.412       .  A
C353        C358   1.407   1_556  A
C353       Br360   1.934       .  S
C354        C355   1.411       .  A
C355        C356   1.411   1_556  A
C355       Br362   1.930       .  S
C356        C357   1.412       .  A
C356       Br361   1.930       .  S
C357        C358   1.413       .  A
C358       Br359   1.934       .  S
C363        C364   1.409       .  A
C363        C368   1.405   1_556  A
C363       Br370   1.932       .  S
C364        C365   1.410       .  A
C365        C366   1.410   1_556  A
C365       Br372   1.928       .  S
C366        C367   1.409       .  A
C366       Br371   1.928       .  S
C367        C368   1.409       .  A
C368       Br369   1.932       .  S
C373        C374   1.412       .  A
C373        C378   1.413   1_556  A
C373       Br380   1.930       .  S
C374        C375   1.415       .  A
C375        C376   1.407   1_556  A
C375       Br382   1.938       .  S
C376        C377   1.415       .  A
C376       Br381   1.938       .  S
C377        C378   1.413       .  A
C378       Br379   1.931       .  S
C383        C384   1.409       .  A
C383        C388   1.409   1_556  A
C383       Br390   1.927       .  S
C384        C385   1.411       .  A
C385        C386   1.406   1_556  A
C385       Br392   1.932       .  S
C386        C387   1.409       .  A
C386       Br391   1.933       .  S
C387        C388   1.408       .  A
C388       Br389   1.928       .  S
C393        C394   1.411       .  A
C393        C398   1.407   1_565  A
C393       Br400   1.932       .  S
C394        C395   1.409       .  A
C395        C396   1.408   1_565  A
C395       Br402   1.929       .  S
C396        C397   1.408       .  A
C396       Br401   1.928       .  S
C397        C398   1.411       .  A
C398       Br399   1.933       .  S
C403        C404   1.408       .  A
C403        C408   1.409   1_565  A
C403       Br410   1.928       .  S
C404        C405   1.409       .  A
C405        C406   1.405   1_565  A
C405       Br412   1.933       .  S
C406        C407   1.410       .  A
C406       Br411   1.932       .  S
C407        C408   1.409       .  A
C408       Br409   1.927       .  S
C413        C414   1.413       .  A
C413        C418   1.406   1_565  A
C413       Br420   1.935       .  S
C414        C415   1.412       .  A
C415        C416   1.411   1_565  A
C415       Br422   1.930       .  S
C416        C417   1.412       .  A
C416       Br421   1.931       .  S
C417        C418   1.412       .  A
C418       Br419   1.935       .  S
C423        C424   1.410       .  A
C423        C428   1.405   1_565  A
C423       Br430   1.933       .  S
C424        C425   1.410       .  A
C425        C426   1.411   1_565  A
C425       Br432   1.928       .  S
C426        C427   1.410       .  A
C426       Br431   1.929       .  S
C427        C428   1.410       .  A
C428       Br429   1.933       .  S
