geometry optimzed in LAMMPS
_audit_creation_date              2020-12-01 
_audit_creation_method            'lammps2cif' 
_symmetry_space_group_name_H-M    'P1' 
_symmetry_Int_Tables_number       1 
_symmetry_cell_setting            triclinic 
loop_ 
_symmetry_equiv_pos_as_xyz 
  x,y,z 
_cell_length_a                    31.59343944 
_cell_length_b                    31.508623768361915 
_cell_length_c                    31.456209619609474 
_cell_angle_alpha                 90.15418404168392 
_cell_angle_beta                  89.9496728644261 
_cell_angle_gamma                 89.89371888128125 
loop_ 
_atom_site_label 
_atom_site_type_symbol 
_atom_site_fract_x 
_atom_site_fract_y 
_atom_site_fract_z 
_atom_site_charge 
O1          O  0.82070257  0.54546589  0.75080513    -0.73500
O2          O  0.75787719  0.45386933  0.81386299    -0.74500
O3          O  0.82215670  0.45513998  0.74921101    -0.63100
O4          O  0.75607553  0.54344654  0.81487686    -0.71600
O5          O  0.70734068  0.54366216  0.76402326    -0.71100
O6          O  0.77189261  0.45495698  0.69991173    -0.62400
O7          O  0.70869040  0.45379905  0.76346794    -0.74900
O8          O  0.77090196  0.54536838  0.70103635    -0.73600
Cu9        Cu  0.79107169  0.49948220  0.78392275     1.04600
Cu10       Cu  0.73810799  0.49942332  0.73035204     1.04300
C11         C  0.80548319  0.55999153  0.71612429     0.92700
C12         C  0.72299969  0.43995334  0.79881784     0.91800
C13         C  0.80700647  0.44095796  0.71425908     0.83900
C14         C  0.72105602  0.55708552  0.79974148     0.90200
O15         O  0.50974791  0.76891304  0.75344167    -0.73500
O16         O  0.59768733  0.70123823  0.81781308    -0.74500
O17         O  0.59971433  0.76651042  0.75441594    -0.63100
O18         O  0.50804352  0.70393185  0.81755976    -0.71600
O19         O  0.50713929  0.65492096  0.76671152    -0.71100
O20         O  0.59895733  0.71675958  0.70428611    -0.62400
O21         O  0.59700318  0.65265460  0.76652855    -0.74900
O22         O  0.50901237  0.71869083  0.70380217    -0.73600
Cu23       Cu  0.55384201  0.73695138  0.78763154     1.04600
Cu24       Cu  0.55300259  0.68411607  0.73362424     1.04300
C25         C  0.49551265  0.75406884  0.71835765     0.92700
C26         C  0.61104435  0.66621175  0.80205931     0.91800
C27         C  0.61366764  0.75142101  0.71934229     0.83900
C28         C  0.49336667  0.66941668  0.80210194     0.90200
O29         O  0.75378552  0.76870099  0.59167441    -0.73500
O30         O  0.81797560  0.70286474  0.50245995    -0.74500
O31         O  0.75366439  0.76667729  0.50154417    -0.63100
O32         O  0.81896769  0.70488642  0.59256937    -0.71600
O33         O  0.76936435  0.65507427  0.59340309    -0.71100
O34         O  0.70459573  0.71630822  0.50248918    -0.62400
O35         O  0.76793199  0.65342532  0.50315477    -0.74900
O36         O  0.70527713  0.71778188  0.59279314    -0.73600
Cu37       Cu  0.78786348  0.73760409  0.54702884     1.04600
Cu38       Cu  0.73511703  0.68395257  0.54804015     1.04300
C39         C  0.71925977  0.75335136  0.60620745     0.92700
C40         C  0.80279579  0.66782575  0.48874967     0.91800
C41         C  0.71897617  0.75112556  0.48765510     0.83900
C42         C  0.80440308  0.67000654  0.60713188     0.90200
C43         C  0.42755045  0.83786841  0.42646103     0.79600
N44         N  0.45502239  0.81597291  0.40135365    -0.78700
C45         C  0.45900718  0.77327538  0.40561050     0.82100
N46         N  0.43579675  0.75268978  0.43550739    -0.78600
C47         C  0.40758730  0.77422504  0.46007287     0.82200
N48         N  0.40367786  0.81693630  0.45561863    -0.80300
C49         C  0.42601230  0.15943064  0.42800382     0.79600
N50         N  0.45545957  0.18132534  0.40538712    -0.78700
C51         C  0.46095325  0.22373798  0.41085692     0.82100
N52         N  0.43733919  0.24472403  0.44010737    -0.78600
C53         C  0.40740725  0.22378896  0.46264273     0.82200
N54         N  0.40195249  0.18148564  0.45637486    -0.80300
O55         O  0.59354514  0.29550887  0.28316461    -0.73500
O56         O  0.50551555  0.23181469  0.35032240    -0.74500
O57         O  0.50422361  0.29651848  0.28621483    -0.63100
O58         O  0.59480285  0.23093977  0.34711411    -0.71600
O59         O  0.59669518  0.28092371  0.39701757    -0.71100
O60         O  0.50558046  0.34569381  0.33693485    -0.62400
O61         O  0.50704083  0.28195753  0.40005301    -0.74900
O62         O  0.59540153  0.34456490  0.33396021    -0.73600
Cu63       Cu  0.54941661  0.26192111  0.31491121     1.04600
Cu64       Cu  0.55125204  0.31499303  0.36870900     1.04300
C65         C  0.60822811  0.33021530  0.29817289     0.92700
C66         C  0.49266522  0.24681386  0.38587278     0.91800
C67         C  0.49095835  0.33159558  0.30181727     0.83900
C68         C  0.60977104  0.24561333  0.38187454     0.90200
C69         C  0.67856030  0.83697548  0.41833032     0.79600
N70         N  0.70234607  0.81533202  0.44706604    -0.78700
C71         C  0.69504992  0.77360123  0.45461815     0.82100
N72         N  0.66410709  0.75318935  0.43283821    -0.78600
C73         C  0.64105249  0.77396794  0.40299473     0.82200
N74         N  0.64806463  0.81599813  0.39604067    -0.80300
C75         C  0.67531436  0.15652061  0.42109516     0.79600
N76         N  0.69881664  0.17644707  0.45163206    -0.78700
C77         C  0.69362723  0.21881125  0.45898556     0.82100
N78         N  0.66460456  0.24083596  0.43617378    -0.78600
C79         C  0.64181099  0.22150339  0.40526235     0.82200
N80         N  0.64735351  0.17947686  0.39769141    -0.80300
O81         O  0.76709989  0.34087153  0.50354981    -0.73500
O82         O  0.70543319  0.27957911  0.59598225    -0.74500
O83         O  0.76905360  0.34261306  0.59364442    -0.63100
O84         O  0.70417158  0.27699787  0.50569312    -0.71600
O85         O  0.75326767  0.22652485  0.50538698    -0.71100
O86         O  0.81906938  0.29303661  0.59357620    -0.62400
O87         O  0.75418743  0.22875495  0.59593374    -0.74900
O88         O  0.81760075  0.29179203  0.50345303    -0.73600
Cu89       Cu  0.73475186  0.31161529  0.54970286     1.04600
Cu90       Cu  0.78780439  0.25816093  0.54958585     1.04300
C91         C  0.80230643  0.32672186  0.48945638     0.92700
C92         C  0.71968962  0.24455879  0.61042279     0.91800
C93         C  0.80451497  0.32847432  0.60712708     0.83900
C94         C  0.71821006  0.24151852  0.49171491     0.90200
C95         C  0.67870563  0.83928113  0.67631721     0.79600
N96         N  0.70021743  0.81853211  0.64498648    -0.78700
C97         C  0.69533770  0.77607366  0.63915055     0.82100
N98         N  0.66744570  0.75442612  0.66361342    -0.78600
C99         C  0.64609403  0.77445506  0.69520489     0.82200
N100        N  0.65243910  0.81654759  0.70189794    -0.80300
C101        C  0.67729507  0.15981580  0.68003627     0.79600
N102        N  0.64820783  0.18177751  0.70328560    -0.78700
C103        C  0.64254171  0.22404992  0.69667164     0.82100
N104        N  0.66585640  0.24405234  0.66647282    -0.78600
C105        C  0.69556299  0.22251996  0.64373750     0.82200
N106        N  0.70097308  0.18029823  0.65038570    -0.80300
C107        C  0.42682820  0.84031691  0.67657727     0.79600
N108        N  0.45708882  0.81954929  0.69938244    -0.78700
C109        C  0.46288471  0.77705769  0.69426171     0.82100
N110        N  0.43897639  0.75557081  0.66556361    -0.78600
C111        C  0.40825466  0.77577923  0.64329427     0.82200
N112        N  0.40206367  0.81800753  0.64916826    -0.80300
C113        C  0.42500950  0.16081211  0.67995760     0.79600
N114        N  0.45348704  0.18274426  0.70381904    -0.78700
C115        C  0.45868915  0.22508593  0.69806149     0.82100
N116        N  0.43513717  0.24556441  0.66844550    -0.78600
C117        C  0.40566903  0.22432520  0.64538901     0.82200
N118        N  0.40091735  0.18180867  0.65090681    -0.80300
O119        O  0.59606042  0.23376195  0.75580157    -0.73500
O120        O  0.50653892  0.29980525  0.81932409    -0.74500
O121        O  0.50607289  0.23383537  0.75642480    -0.63100
O122        O  0.59595603  0.30031976  0.81861998    -0.71600
O123        O  0.59577666  0.34808414  0.76682318    -0.71100
O124        O  0.50558022  0.28298315  0.70595425    -0.62400
O125        O  0.50598275  0.34786387  0.76779980    -0.74900
O126        O  0.59577300  0.28260687  0.70507030    -0.73600
Cu127      Cu  0.55119200  0.26515573  0.78935476     1.04600
Cu128      Cu  0.55076540  0.31698782  0.73464577     1.04300
C129        C  0.60998963  0.24785834  0.72037954     0.92700
C130        C  0.49244900  0.33439342  0.80357492     0.91800
C131        C  0.49155857  0.24831884  0.72139745     0.83900
C132        C  0.60971009  0.33486858  0.80250871     0.90200
O133        O  0.34656911  0.23169267  0.59871858    -0.73500
O134        O  0.28239172  0.29508540  0.50773984    -0.74500
O135        O  0.34758152  0.23129805  0.50851561    -0.63100
O136        O  0.28149703  0.29597957  0.59809639    -0.71600
O137        O  0.33144328  0.34545300  0.59792574    -0.71100
O138        O  0.39623066  0.28207482  0.50882892    -0.62400
O139        O  0.33230352  0.34461293  0.50771320    -0.74900
O140        O  0.39520463  0.28247479  0.59896365    -0.73600
Cu141      Cu  0.31270580  0.26167776  0.55325278     1.04600
Cu142      Cu  0.36541375  0.31533370  0.55336690     1.04300
C143        C  0.38119044  0.24714891  0.61292377     0.92700
C144        C  0.29737360  0.32995332  0.49355015     0.91800
C145        C  0.38243005  0.24668375  0.49476214     0.83900
C146        C  0.29638376  0.33110400  0.61201989     0.90200
C147        C  0.67752839  0.37851385  0.88831650     0.79600
N148        N  0.70355407  0.40412039  0.86533296    -0.78700
C149        C  0.69808957  0.40873095  0.82269149     0.82100
N150        N  0.66708493  0.38671915  0.80268684    -0.78600
C151        C  0.64206938  0.35973831  0.82480628     0.82200
N152        N  0.64683996  0.35640723  0.86756404    -0.80300
C153        C  0.67348444  0.37279274  0.21004138     0.79600
N154        N  0.64462445  0.34923182  0.23173335    -0.78700
C155        C  0.64017201  0.35424509  0.27442943     0.82100
N156        N  0.66422783  0.38324428  0.29518293    -0.78600
C157        C  0.69364371  0.40627181  0.27399165     0.82200
N158        N  0.69815475  0.40112506  0.23130723    -0.80300
O159        O  0.70418498  0.45253352  0.33246680    -0.73500
O160        O  0.76818725  0.54295172  0.39509860    -0.74500
O161        O  0.70421830  0.54245284  0.33222571    -0.63100
O162        O  0.76735933  0.45263492  0.39589027    -0.71600
O163        O  0.81755532  0.45225160  0.34643525    -0.71100
O164        O  0.75284286  0.54173095  0.28120768    -0.62400
O165        O  0.81801991  0.54238417  0.34529017    -0.74900
O166        O  0.75319757  0.45195892  0.28181617    -0.73600
Cu167      Cu  0.73435535  0.49768500  0.36563171     1.04600
Cu168      Cu  0.78722529  0.49706143  0.31189562     1.04300
C169        C  0.71831050  0.43831847  0.29711129     0.92700
C170        C  0.80321658  0.55680838  0.38029976     0.91800
C171        C  0.71799974  0.55580704  0.29655008     0.83900
C172        C  0.80239343  0.43838529  0.38147832     0.90200
C173        C  0.67499904  0.61911693  0.88844515     0.79600
N174        N  0.64679988  0.64409152  0.86756652    -0.78700
C175        C  0.64267133  0.64078761  0.82474211     0.82100
N176        N  0.66671075  0.61229887  0.80299707    -0.78600
C177        C  0.69573796  0.58809563  0.82358228     0.82200
N178        N  0.69962873  0.59133746  0.86642802    -0.80300
C179        C  0.67384116  0.62096957  0.20895799     0.79600
N180        N  0.69706589  0.59160341  0.23047422    -0.78700
C181        C  0.69310110  0.58755828  0.27326506     0.82100
N182        N  0.66453271  0.61191177  0.29445925    -0.78600
C183        C  0.64160707  0.64168797  0.27349553     0.82200
N184        N  0.64682503  0.64649187  0.23099218    -0.80300
C185        C  0.42602249  0.62744415  0.88901812     0.79600
N186        N  0.40118130  0.59975224  0.86723417    -0.78700
C187        C  0.40604388  0.59477580  0.82462102     0.82100
N188        N  0.43618479  0.61731792  0.80384740    -0.78600
C189        C  0.46050227  0.64579270  0.82511526     0.82200
N190        N  0.45554292  0.65064622  0.86780745    -0.80300
C191        C  0.42005332  0.62264426  0.21049208     0.79600
N192        N  0.45113080  0.64515906  0.23053103    -0.78700
C193        C  0.45779266  0.64056532  0.27306086     0.82100
N194        N  0.43414280  0.61243291  0.29529671    -0.78600
C195        C  0.40280529  0.59036640  0.27593979     0.82200
N196        N  0.39554481  0.59599372  0.23382248    -0.80300
O197        O  0.50444214  0.71452259  0.39450001    -0.73500
O198        O  0.59499859  0.65182436  0.33145706    -0.74500
O199        O  0.59429164  0.71578036  0.39422842    -0.63100
O200        O  0.50498439  0.65094615  0.33077676    -0.71600
O201        O  0.50442596  0.69987770  0.28013957    -0.71100
O202        O  0.59378598  0.76558433  0.34443066    -0.62400
O203        O  0.59442553  0.70049533  0.28052505    -0.74900
O204        O  0.50399607  0.76475268  0.34512150    -0.73600
Cu205      Cu  0.54964972  0.68158714  0.36439023     1.04600
Cu206      Cu  0.54908423  0.73445373  0.31071339     1.04300
C207        C  0.49041008  0.74974627  0.38034083     0.92700
C208        C  0.60900957  0.66602853  0.29622082     0.91800
C209        C  0.60809969  0.75086569  0.37942551     0.83900
C210        C  0.49075177  0.66493699  0.29544173     0.90200
C211        C  0.43210899  0.38234987  0.89267410     0.79600
N212        N  0.45759061  0.35583537  0.86991689    -0.78700
C213        C  0.46123912  0.35975446  0.82712006     0.82100
N214        N  0.43811535  0.38953880  0.80654327    -0.78600
C215        C  0.41091737  0.41481310  0.82837982     0.82200
N216        N  0.40860043  0.41172843  0.87142563    -0.80300
C217        C  0.42880498  0.37769676  0.21390235     0.79600
N218        N  0.45635459  0.35296406  0.23580825    -0.78700
C219        C  0.45935898  0.35654796  0.27867049     0.82100
N220        N  0.43481679  0.38518966  0.29959801    -0.78600
C221        C  0.40626345  0.40920825  0.27807697     0.82200
N222        N  0.40357662  0.40571702  0.23507136    -0.80300
C223        C  0.89248586  0.37167268  0.67247952     0.79600
N224        N  0.87175084  0.40163612  0.69573061    -0.78700
C225        C  0.82961873  0.40799744  0.69010861     0.82100
N226        N  0.80831518  0.38428838  0.66110212    -0.78600
C227        C  0.82848835  0.35360863  0.63842080     0.82200
N228        N  0.87078418  0.34751270  0.64393788    -0.80300
C229        C  0.21159365  0.37240548  0.68338206     0.79600
N230        N  0.23177860  0.35009747  0.65210424    -0.78700
C231        C  0.27394129  0.35541344  0.64510384     0.82100
N232        N  0.29568435  0.38436951  0.66838935    -0.78600
C233        C  0.27618032  0.40640697  0.69987501     0.82200
N234        N  0.23447623  0.39979161  0.70763335    -0.80300
O235        O  0.33067780  0.54446976  0.70429499    -0.73500
O236        O  0.39798088  0.45859886  0.76889088    -0.74500
O237        O  0.33346814  0.45433060  0.70702211    -0.63100
O238        O  0.39527827  0.54829184  0.76632116    -0.71600
O239        O  0.34687040  0.54869971  0.81757004    -0.71100
O240        O  0.28446561  0.45464707  0.75767967    -0.62400
O241        O  0.35015997  0.45924751  0.82068472    -0.74900
O242        O  0.28111224  0.54478751  0.75437216    -0.73600
Cu243      Cu  0.36593525  0.50141969  0.73485943     1.04600
Cu244      Cu  0.31384007  0.50185028  0.78936868     1.04300
C245        C  0.29547850  0.55825614  0.71886216     0.92700
C246        C  0.38511428  0.44577197  0.80511188     0.91800
C247        C  0.29921924  0.43976204  0.72283550     0.83900
C248        C  0.38133860  0.56271272  0.80164238     0.90200
C249        C  0.89086238  0.63044321  0.67689337     0.79600
N250        N  0.86968632  0.65334563  0.64693967    -0.78700
C251        C  0.82769613  0.64644640  0.64003716     0.82100
N252        N  0.80725830  0.61607856  0.66260581    -0.78600
C253        C  0.82784066  0.59364922  0.69298219     0.82200
N254        N  0.86954389  0.60106801  0.70018368    -0.80300
C255        C  0.21003471  0.62819178  0.67698326     0.79600
N256        N  0.23273390  0.65262230  0.64965662    -0.78700
C257        C  0.27472263  0.64565993  0.64385383     0.82100
N258        N  0.29429977  0.61446348  0.66596470    -0.78600
C259        C  0.27254282  0.59079359  0.69450920     0.82200
N260        N  0.23023893  0.59739617  0.69973979    -0.80300
O261        O  0.39762641  0.71704104  0.59726987    -0.73500
O262        O  0.33260223  0.65382526  0.50804445    -0.74500
O263        O  0.39706759  0.71619070  0.50678067    -0.63100
O264        O  0.33342589  0.65478827  0.59803634    -0.71600
O265        O  0.28385577  0.70486786  0.59790963    -0.71100
O266        O  0.34859169  0.76730114  0.50695673    -0.62400
O267        O  0.28294307  0.70379654  0.50816073    -0.74900
O268        O  0.34900902  0.76803039  0.59715131    -0.73600
Cu269      Cu  0.36686629  0.68376608  0.55251342     1.04600
Cu270      Cu  0.31438112  0.73785603  0.55251865     1.04300
C271        C  0.38367374  0.75250860  0.61122753     0.92700
C272        C  0.29731763  0.66832254  0.49454105     0.91800
C273        C  0.38316167  0.75154944  0.49270555     0.83900
C274        C  0.29846958  0.66976352  0.61197170     0.90200
C275        C  0.88950584  0.62483309  0.42263360     0.79600
N276        N  0.86783886  0.64891032  0.45112755    -0.78700
C277        C  0.82566648  0.64337742  0.45645942     0.82100
N278        N  0.80514394  0.61333553  0.43344493    -0.78600
C279        C  0.82625821  0.58967273  0.40416953     0.82200
N280        N  0.86867159  0.59526787  0.39892812    -0.80300
C281        C  0.20941075  0.62568275  0.42846765     0.79600
N282        N  0.23102628  0.64829540  0.45840624    -0.78700
C283        C  0.27361559  0.64368650  0.46281712     0.82100
N284        N  0.29447629  0.61495062  0.43845134    -0.78600
C285        C  0.27358192  0.59254309  0.40827365     0.82200
N286        N  0.23142526  0.59862088  0.40290401    -0.80300
C287        C  0.88952249  0.37358236  0.42604016     0.79600
N288        N  0.86800750  0.40218893  0.40202809    -0.78700
C289        C  0.82539781  0.40605258  0.40592540     0.82100
N290        N  0.80436826  0.38136998  0.43427826    -0.78600
C291        C  0.82541685  0.35183730  0.45759329     0.82200
N292        N  0.86811943  0.34817777  0.45357731    -0.80300
C293        C  0.20955640  0.37457630  0.42934628     0.79600
N294        N  0.23179601  0.34904212  0.45615480    -0.78700
C295        C  0.27416123  0.35430370  0.46131581     0.82100
N296        N  0.29460268  0.38466918  0.43879994    -0.78600
C297        C  0.27322824  0.40913924  0.41063198     0.82200
N298        N  0.23066851  0.40447542  0.40647302    -0.80300
O299        O  0.33126383  0.45554202  0.40012234    -0.73500
O300        O  0.39378177  0.54499409  0.33514559    -0.74500
O301        O  0.33116517  0.54566063  0.39868859    -0.63100
O302        O  0.39466221  0.45502472  0.33658034    -0.71600
O303        O  0.34571633  0.45415165  0.28596350    -0.71100
O304        O  0.28057916  0.54476219  0.34970429    -0.62400
O305        O  0.34422990  0.54398672  0.28510385    -0.74900
O306        O  0.28100607  0.45472383  0.35081590    -0.73600
Cu307      Cu  0.36436107  0.50029030  0.36933309     1.04600
Cu308      Cu  0.31104506  0.49928789  0.31611210     1.04300
C309        C  0.29612380  0.44132224  0.38599666     0.92700
C310        C  0.37897974  0.55848587  0.29989454     0.91800
C311        C  0.29610652  0.55960658  0.38419594     0.83900
C312        C  0.38082017  0.44079406  0.30122210     0.90200
C313        C  0.16234978  0.37207474  0.42749848     0.00700
C314        C  0.13837698  0.36577810  0.46520049     0.03600
C315        C  0.09390847  0.36342395  0.46334522    -0.12500
C316        C  0.07261940  0.37069355  0.42480018     0.22900
C317        C  0.09597563  0.37841815  0.38752245    -0.13100
C318        C  0.14059437  0.37764994  0.38844003     0.04300
C319        C  0.02555453  0.37162892  0.42397551     0.26700
C320        C  0.00257730  0.33584462  0.41009932    -0.13800
C321        C  0.95799151  0.33655636  0.41037598     0.04800
C322        C  0.93624482  0.37287028  0.42493380    -0.09700
C323        C  0.95924144  0.40864000  0.43893963     0.05600
C324        C  0.00376547  0.40809415  0.43819227    -0.14100
Br325      Br  0.06641856  0.39114141  0.33536194    -0.06200
Br326      Br  0.16490257  0.36429908  0.52060019    -0.00500
Br327      Br  0.92659098  0.28833454  0.38959573    -0.00100
Br328      Br  0.03511951  0.45715745  0.45712910    -0.04500
Br329      Br  0.17098457  0.38245372  0.33534422     0.00000
Br330      Br  0.06158300  0.35065237  0.51385998    -0.03800
Br331      Br  0.03231804  0.28571964  0.39121849    -0.04700
Br332      Br  0.92990193  0.45778767  0.46114140    -0.00700
C333        C  0.93607957  0.62697529  0.42215667     0.00700
C334        C  0.95768483  0.64665591  0.38838600     0.03600
C335        C  0.00219651  0.64934888  0.38907582    -0.12500
C336        C  0.02511502  0.63184300  0.42326831     0.22900
C337        C  0.00340049  0.61219877  0.45703029    -0.13100
C338        C  0.95897609  0.61027889  0.45676924     0.04300
C339        C  0.07212333  0.63157403  0.42267358     0.26700
C340        C  0.09356430  0.59538689  0.40793791    -0.13800
C341        C  0.13793524  0.59269217  0.41094982     0.04800
C342        C  0.16197659  0.62821583  0.42548649    -0.09700
C343        C  0.13980051  0.66563056  0.43806617     0.05600
C344        C  0.09514260  0.66646024  0.43811873    -0.14100
Br345      Br  0.03471371  0.58678467  0.50303610    -0.06200
Br346      Br  0.92616900  0.67067269  0.34182864    -0.00500
Br347      Br  0.16328720  0.53811730  0.39801204    -0.00100
Br348      Br  0.06491078  0.71526266  0.45988318    -0.04500
Br349      Br  0.92946356  0.58401648  0.50363400     0.00000
Br350      Br  0.03204388  0.67640914  0.34307286    -0.03800
Br351      Br  0.06126741  0.54912535  0.38379548    -0.04700
Br352      Br  0.16905929  0.71732044  0.45341601    -0.00700
C353        C  0.93765008  0.63375619  0.68087252     0.00700
C354        C  0.95750059  0.67343463  0.68750616     0.03600
C355        C  0.00206547  0.67606744  0.68986971    -0.12500
C356        C  0.02699109  0.63916692  0.68572251     0.22900
C357        C  0.00727612  0.59961957  0.67935398    -0.13100
C358        C  0.96291530  0.59681012  0.67684028     0.04300
C359        C  0.07404313  0.64167209  0.68441324     0.26700
C360        C  0.09464075  0.64296403  0.64480318    -0.13800
C361        C  0.13878309  0.63752029  0.64221150     0.04800
C362        C  0.16326314  0.63368078  0.67979616    -0.09700
C363        C  0.14264292  0.63528619  0.71974874     0.05600
C364        C  0.09812562  0.63858682  0.72193976    -0.14100
Br365      Br  0.04157415  0.54933596  0.67221086    -0.06200
Br366      Br  0.92390421  0.72418545  0.69427359    -0.00500
Br367      Br  0.16420194  0.63149815  0.58653775    -0.00100
Br368      Br  0.06981776  0.63891459  0.77627029    -0.04500
Br369      Br  0.93754590  0.54230470  0.66459736     0.00000
Br370      Br  0.02939776  0.73022175  0.69757474    -0.03800
Br371      Br  0.06173072  0.65209492  0.59399217    -0.04700
Br372      Br  0.17505244  0.63446258  0.77174333    -0.04300
C373        C  0.93894016  0.36812487  0.67591680     0.00700
C374        C  0.96488559  0.38882943  0.64602562     0.03600
C375        C  0.00918024  0.38809171  0.65068996    -0.12500
C376        C  0.02778052  0.36672282  0.68538391     0.22900
C377        C  0.00173690  0.34651242  0.71560475    -0.13100
C378        C  0.95741427  0.34674786  0.71053330     0.04300
C379        C  0.07468803  0.36625782  0.69000947     0.26700
C380        C  0.09828389  0.33028266  0.67792453    -0.13800
C381        C  0.14288400  0.33113125  0.67933535     0.04800
C382        C  0.16450454  0.36951598  0.68869591    -0.09700
C383        C  0.14021456  0.40556211  0.70143132     0.05600
C384        C  0.09580022  0.40282506  0.70423756    -0.14100
Br385      Br  0.02679121  0.32014524  0.76480569    -0.06200
Br386      Br  0.93958319  0.41931251  0.59930625    -0.00500
Br387      Br  0.17329655  0.27850768  0.67080801    -0.00100
Br388      Br  0.06317376  0.44934308  0.72743469    -0.04500
Br389      Br  0.92181114  0.31739321  0.75059194     0.00000
Br390      Br  0.04442451  0.41753355  0.61021741    -0.03800
Br391      Br  0.06922034  0.28006217  0.65834628    -0.04700
Br392      Br  0.16543546  0.46063281  0.71162544    -0.00700
C393        C  0.42940393  0.37680176  0.16710959     0.00700
C394        C  0.45010243  0.40936988  0.14464090     0.03600
C395        C  0.45120265  0.40853114  0.09995787    -0.12500
C396        C  0.43213885  0.37475067  0.07762501     0.22900
C397        C  0.41275251  0.34139592  0.10019877    -0.13100
C398        C  0.41129982  0.34250768  0.14492129     0.04300
C399        C  0.43154850  0.37514491  0.03041349     0.26700
C400        C  0.39553336  0.38997117  0.00882000    -0.13800
C401        C  0.39487692  0.39116288  0.96402425     0.04800
C402        C  0.43176986  0.38036163  0.94031703    -0.09700
C403        C  0.46879667  0.36776544  0.96288108     0.05600
C404        C  0.46763469  0.36286155  0.00733823    -0.14100
Br405      Br  0.38848070  0.29417407  0.06974048    -0.06200
Br406      Br  0.47857622  0.45413349  0.17522772    -0.00500
Br407      Br  0.34226387  0.40654593  0.93672258    -0.00100
Br408      Br  0.51553840  0.33900194  0.03709527    -0.04500
Br409      Br  0.38418502  0.29740368  0.17599898     0.00000
Br410      Br  0.47884368  0.45361502  0.06919606    -0.03800
Br411      Br  0.34714765  0.40918444  0.04130521    -0.04700
Br412      Br  0.52322122  0.36159936  0.93511012    -0.00700
C413        C  0.42369097  0.62893030  0.93596272     0.00700
C414        C  0.38647499  0.64294094  0.95645860     0.03600
C415        C  0.38371022  0.64231013  0.00117760    -0.12500
C416        C  0.41820389  0.62782460  0.02562414     0.22900
C417        C  0.45506857  0.61295224  0.00507821    -0.13100
C418        C  0.45787179  0.61362054  0.96040963     0.04300
C419        C  0.41546394  0.62717646  0.07289418     0.26700
C420        C  0.42281563  0.66439404  0.09659750    -0.13800
C421        C  0.42133570  0.66350312  0.14139403     0.04800
C422        C  0.41517190  0.62465477  0.16313870    -0.09700
C423        C  0.40619234  0.58751242  0.13886386     0.05600
C424        C  0.40583168  0.58915287  0.09406777    -0.14100
Br425      Br  0.50102980  0.58995790  0.03821724    -0.06200
Br426      Br  0.33949035  0.66354173  0.92322567    -0.00500
Br427      Br  0.42426717  0.71651068  0.17224590    -0.00100
Br428      Br  0.39266890  0.53902123  0.06103400    -0.04500
Br429      Br  0.50764027  0.59107742  0.93267177     0.00000
Br430      Br  0.33218832  0.65987130  0.02911314    -0.03800
Br431      Br  0.43576969  0.71657095  0.06736898    -0.04700
Br432      Br  0.39554930  0.53322647  0.16524714    -0.00700
C433        C  0.67659106  0.61989927  0.93508710     0.00700
C434        C  0.69870526  0.65233718  0.95625167     0.03600
C435        C  0.69900966  0.65379787  0.00093052    -0.12500
C436        C  0.67834806  0.62188884  0.02448455     0.22900
C437        C  0.65674798  0.58895763  0.00311105    -0.13100
C438        C  0.65522854  0.58846616  0.95846243     0.04300
C439        C  0.67803983  0.62359200  0.07164523     0.26700
C440        C  0.71454514  0.61296021  0.09492786    -0.13800
C441        C  0.71410694  0.61518359  0.13964296     0.04800
C442        C  0.67563262  0.62307712  0.16162320    -0.09700
C443        C  0.63849759  0.63183863  0.13769301     0.05600
C444        C  0.64072515  0.63505996  0.09319730    -0.14100
Br445      Br  0.62890853  0.54470967  0.03497443    -0.06200
Br446      Br  0.72879177  0.69444647  0.92376462    -0.00500
Br447      Br  0.76722345  0.60993059  0.16960641    -0.00100
Br448      Br  0.59274537  0.65592721  0.06142590    -0.04500
Br449      Br  0.62236098  0.54585128  0.92921380     0.00000
Br450      Br  0.72673439  0.70010394  0.02982891    -0.03800
Br451      Br  0.76501137  0.59462588  0.06536297    -0.04700
Br452      Br  0.58308216  0.63516704  0.16383238    -0.00700
C453        C  0.68070378  0.37624023  0.93587269     0.00700
C454        C  0.69282695  0.41226028  0.96045794     0.03600
C455        C  0.69325128  0.41011350  0.00524761    -0.12500
C456        C  0.67946312  0.37324363  0.02615313     0.22900
C457        C  0.66732920  0.33753774  0.00225035    -0.13100
C458        C  0.66947935  0.33831772  0.95751777     0.04300
C459        C  0.67760168  0.37212876  0.07341881     0.26700
C460        C  0.71049199  0.35289016  0.09681885    -0.13800
C461        C  0.70914152  0.35280230  0.14160615     0.04800
C462        C  0.67458266  0.37132025  0.16311263    -0.09700
C463        C  0.64140699  0.39000249  0.13969634     0.05600
C464        C  0.64311412  0.39079315  0.09499608    -0.14100
Br465      Br  0.64702839  0.28756230  0.03122795    -0.06200
Br466      Br  0.70698327  0.46602594  0.93462844    -0.00500
Br467      Br  0.75423460  0.32679175  0.17359017    -0.00100
Br468      Br  0.59869492  0.41830916  0.06322017    -0.04500
Br469      Br  0.65970186  0.28577317  0.92715693     0.00000
Br470      Br  0.71253984  0.45791071  0.03865638    -0.03800
Br471      Br  0.75753887  0.32707699  0.06731330    -0.04700
Br472      Br  0.59418639  0.41580929  0.16898573    -0.00700
C473        C  0.42380993  0.11384905  0.68221644     0.00700
C474        C  0.46134197  0.09023132  0.67541333     0.03600
C475        C  0.46032437  0.04561868  0.67614063    -0.12500
C476        C  0.42208601  0.02420539  0.68420122     0.22900
C477        C  0.38460554  0.04757790  0.69094967    -0.13100
C478        C  0.38533789  0.09229376  0.68960116     0.04300
C479        C  0.42101871  0.97705828  0.68275962     0.26700
C480        C  0.41889980  0.95621227  0.64322820    -0.13800
C481        C  0.42103252  0.91166083  0.64105234     0.04800
C482        C  0.42318219  0.88734513  0.67887261    -0.09700
C483        C  0.42327364  0.90845090  0.71863602     0.05600
C484        C  0.42346652  0.95316095  0.72044505    -0.14100
Br485      Br  0.33213898  0.01797827  0.70092741    -0.06200
Br486      Br  0.51394184  0.11845987  0.66192041    -0.00500
Br487      Br  0.42396739  0.88512443  0.58561503    -0.00100
Br488      Br  0.42815604  0.98194311  0.77444156    -0.04500
Br489      Br  0.33360184  0.12377444  0.69832253     0.00000
Br490      Br  0.51100249  0.01349093  0.66409149    -0.03800
Br491      Br  0.41401430  0.98926726  0.59186814    -0.04700
Br492      Br  0.42061580  0.87654903  0.77089095    -0.00700
C493        C  0.67920150  0.11310807  0.68265177     0.00700
C494        C  0.66003110  0.08861546  0.65047217     0.03600
C495        C  0.66236991  0.04409584  0.65176449    -0.12500
C496        C  0.68404038  0.02375494  0.68518527     0.22900
C497        C  0.70299058  0.04821413  0.71759728    -0.13100
C498        C  0.70024097  0.09288758  0.71650664     0.04300
C499        C  0.68486672  0.97659245  0.68675742     0.26700
C500        C  0.64892224  0.95467349  0.70095818    -0.13800
C501        C  0.64602678  0.91040703  0.69582417     0.04800
C502        C  0.68144313  0.88665745  0.68074884    -0.09700
C503        C  0.71874796  0.90907255  0.66888832     0.05600
C504        C  0.71965244  0.95383976  0.67054470    -0.14100
Br505      Br  0.73237881  0.02036429  0.76344288    -0.06200
Br506      Br  0.62920867  0.11612906  0.60526644    -0.00500
Br507      Br  0.59100791  0.88492293  0.70489614    -0.00100
Br508      Br  0.76818788  0.98460318  0.64957551    -0.04500
Br509      Br  0.72516810  0.12648967  0.76121182     0.00000
Br510      Br  0.63539261  0.01074307  0.60794426    -0.03800
Br511      Br  0.60310121  0.98611107  0.72688715    -0.04700
Br512      Br  0.76968023  0.87996041  0.65086588    -0.00700
C513        C  0.67823320  0.10978346  0.41462781     0.00700
C514        C  0.71791588  0.09002212  0.40805298     0.03600
C515        C  0.72067431  0.04550102  0.40384144    -0.12500
C516        C  0.68383365  0.02046360  0.40580766     0.22900
C517        C  0.64403321  0.04017594  0.41019507    -0.13100
C518        C  0.64110415  0.08455910  0.41482612     0.04300
C519        C  0.68675323  0.97335681  0.40824189     0.26700
C520        C  0.68740310  0.94811910  0.37118314    -0.13800
C521        C  0.68642231  0.90342864  0.37434474     0.04800
C522        C  0.68307230  0.88380794  0.41461204    -0.09700
C523        C  0.68275812  0.90941212  0.45169817     0.05600
C524        C  0.68565001  0.95381548  0.44840622    -0.14100
Br525      Br  0.59355502  0.00564485  0.41136135    -0.06200
Br526      Br  0.76850459  0.12388560  0.40326202    -0.00500
Br527      Br  0.69126569  0.86931687  0.32349900    -0.00100
Br528      Br  0.68698401  0.98849053  0.49912463    -0.04500
Br529      Br  0.58598636  0.10968060  0.42424950     0.00000
Br530      Br  0.77494643  0.01845880  0.39618539    -0.03800
Br531      Br  0.68862981  0.97500463  0.31619711    -0.04700
Br532      Br  0.67472676  0.88475653  0.50735713    -0.00700
C533        C  0.42678233  0.88456506  0.42504226     0.00700
C534        C  0.39729886  0.90584950  0.39921250     0.03600
C535        C  0.39669618  0.95050464  0.39816993    -0.12500
C536        C  0.42516753  0.97391342  0.42350066     0.22900
C537        C  0.45451664  0.95255880  0.44955364    -0.13100
C538        C  0.45566925  0.90792532  0.44990178     0.04300
C539        C  0.42381964  0.02103610  0.42321119     0.26700
C540        C  0.44863174  0.04378303  0.39423791    -0.13800
C541        C  0.44722762  0.08852625  0.39347633     0.04800
C542        C  0.42251451  0.11154447  0.42409411    -0.09700
C543        C  0.39603672  0.08747872  0.45216387     0.05600
C544        C  0.39691478  0.04271593  0.45129016    -0.14100
Br545      Br  0.49262379  0.98460975  0.48515128    -0.06200
Br546      Br  0.35789394  0.87366077  0.36533185    -0.00500
Br547      Br  0.47776889  0.11557448  0.34748009    -0.00100
Br548      Br  0.36107897  0.00997863  0.48880638    -0.04500
Br549      Br  0.49692281  0.87862682  0.48429896     0.00000
Br550      Br  0.35677967  0.97985671  0.36234654    -0.03800
Br551      Br  0.48481795  0.01267880  0.35541663    -0.04700
Br552      Br  0.35667530  0.11291091  0.49215679    -0.00700
loop_ 
_geom_bond_atom_site_label_1 
_geom_bond_atom_site_label_2 
_geom_bond_distance 
_geom_bond_site_symmetry_2 
_ccdc_geom_bond_type 
O1           Cu9   2.018       .  S
O1           C11   1.278       .  A
O2           Cu9   2.016       .  S
O2           C12   1.278       .  A
O3           Cu9   2.023       .  S
O3           C13   1.279       .  A
O4           Cu9   2.019       .  S
O4           C14   1.279       .  A
O5          Cu10   1.999       .  S
O5           C14   1.276       .  A
O6          Cu10   2.001       .  S
O6           C13   1.276       .  A
O7          Cu10   2.007       .  S
O7           C12   1.278       .  A
O8          Cu10   2.008       .  S
O8           C11   1.278       .  A
Cu9         Cu10   2.376       .  S
C11         C253   1.470       .  S
C12         C149   1.469       .  S
C13         C225   1.469       .  S
C14         C177   1.466       .  S
O15         Cu23   2.028       .  S
O15          C25   1.280       .  A
O16         Cu23   2.022       .  S
O16          C26   1.279       .  A
O17         Cu23   2.017       .  S
O17          C27   1.278       .  A
O18         Cu23   2.018       .  S
O18          C28   1.278       .  A
O19         Cu24   2.009       .  S
O19          C28   1.278       .  A
O20         Cu24   2.006       .  S
O20          C27   1.278       .  A
O21         Cu24   1.997       .  S
O21          C26   1.276       .  A
O22         Cu24   2.000       .  S
O22          C25   1.276       .  A
Cu23        Cu24   2.376       .  S
C25         C109   1.471       .  S
C26         C175   1.466       .  S
C27          C99   1.469       .  S
C28         C189   1.470       .  S
O29         Cu37   2.019       .  S
O29          C39   1.279       .  A
O30         Cu37   2.014       .  S
O30          C40   1.279       .  A
O31         Cu37   2.015       .  S
O31          C41   1.278       .  A
O32         Cu37   2.022       .  S
O32          C42   1.278       .  A
O33         Cu38   2.010       .  S
O33          C42   1.279       .  A
O34         Cu38   2.007       .  S
O34          C41   1.277       .  A
O35         Cu38   1.995       .  S
O35          C40   1.275       .  A
O36         Cu38   1.998       .  S
O36          C39   1.276       .  A
Cu37        Cu38   2.376       .  S
C39          C97   1.466       .  S
C40         C277   1.463       .  S
C41          C71   1.468       .  S
C42         C251   1.472       .  S
C43         C533   1.472       .  S
C43          N44   1.359       .  A
C43          N48   1.360       .  A
N44          C45   1.358       .  A
C45         C207   1.469       .  S
C45          N46   1.359       .  A
N46          C47   1.359       .  A
C47         C273   1.471       .  S
C47          N48   1.359       .  A
C49         C542   1.518       .  S
C49          N50   1.361       .  A
C49          N54   1.360       .  A
N50          C51   1.358       .  A
C51          C66   1.468       .  S
C51          N52   1.354       .  A
N52          C53   1.355       .  A
C53         C145   1.468       .  S
C53          N54   1.358       .  A
O55         Cu63   2.017       .  S
O55          C65   1.278       .  A
O56         Cu63   2.018       .  S
O56          C66   1.278       .  A
O57         Cu63   2.011       .  S
O57          C67   1.278       .  A
O58         Cu63   2.009       .  S
O58          C68   1.277       .  A
O59         Cu64   2.002       .  S
O59          C68   1.277       .  A
O60         Cu64   2.005       .  S
O60          C67   1.277       .  A
O61         Cu64   2.004       .  S
O61          C66   1.277       .  A
O62         Cu64   2.004       .  S
O62          C65   1.277       .  A
Cu63        Cu64   2.377       .  S
C65         C155   1.468       .  S
C67         C219   1.465       .  S
C68          C79   1.464       .  S
C69         C522   1.488       .  S
C69          N70   1.360       .  A
C69          N74   1.363       .  A
N70          C71   1.357       .  A
C71          N72   1.356       .  A
N72          C73   1.358       .  A
C73         C209   1.471       .  S
C73          N74   1.361       .  A
C75         C513   1.489       .  S
C75          N76   1.367       .  A
C75          N80   1.359       .  A
N76          C77   1.364       .  A
C77          C94   1.475       .  S
C77          N78   1.356       .  A
N78          C79   1.355       .  A
C79          N80   1.356       .  A
O81         Cu89   2.003       .  S
O81          C91   1.276       .  A
O82         Cu89   2.001       .  S
O82          C92   1.276       .  A
O83         Cu89   2.010       .  S
O83          C93   1.278       .  A
O84         Cu89   2.009       .  S
O84          C94   1.279       .  A
O85         Cu90   2.029       .  S
O85          C94   1.279       .  A
O86         Cu90   2.024       .  S
O86          C93   1.279       .  A
O87         Cu90   2.030       .  S
O87          C92   1.280       .  A
O88         Cu90   2.031       .  S
O88          C91   1.280       .  A
Cu89        Cu90   2.374       .  S
C91         C291   1.473       .  S
C92         C105   1.472       .  S
C93         C227   1.473       .  S
C95         C502   1.502       .  S
C95          N96   1.362       .  A
C95         N100   1.361       .  A
N96          C97   1.359       .  A
C97          N98   1.356       .  A
N98          C99   1.355       .  A
C99         N100   1.358       .  A
C101        C493   1.475       .  S
C101        N102   1.361       .  A
C101        N106   1.360       .  A
N102        C103   1.360       .  A
C103        C129   1.473       .  S
C103        N104   1.359       .  A
N104        C105   1.359       .  A
C105        N106   1.358       .  A
C107        C482   1.488       .  S
C107        N108   1.363       .  A
C107        N112   1.360       .  A
N108        C109   1.360       .  A
C109        N110   1.358       .  A
N110        C111   1.356       .  A
C111        C271   1.469       .  S
C111        N112   1.357       .  A
C113        C473   1.482       .  S
C113        N114   1.361       .  A
C113        N118   1.362       .  A
N114        C115   1.357       .  A
C115        C131   1.468       .  S
C115        N116   1.357       .  A
N116        C117   1.357       .  A
C117        C143   1.470       .  S
C117        N118   1.360       .  A
O119       Cu127   2.022       .  S
O119        C129   1.279       .  A
O120       Cu127   2.014       .  S
O120        C130   1.278       .  A
O121       Cu127   2.020       .  S
O121        C131   1.279       .  A
O122       Cu127   2.019       .  S
O122        C132   1.279       .  A
O123       Cu128   2.002       .  S
O123        C132   1.277       .  A
O124       Cu128   2.001       .  S
O124        C131   1.277       .  A
O125       Cu128   2.006       .  S
O125        C130   1.277       .  A
O126       Cu128   2.012       .  S
O126        C129   1.278       .  A
Cu127      Cu128   2.376       .  S
C130        C213   1.467       .  S
C132        C151   1.467       .  S
O133       Cu141   2.022       .  S
O133        C143   1.279       .  A
O134       Cu141   2.020       .  S
O134        C144   1.278       .  A
O135       Cu141   2.024       .  S
O135        C145   1.279       .  A
O136       Cu141   2.029       .  S
O136        C146   1.280       .  A
O137       Cu142   2.001       .  S
O137        C146   1.277       .  A
O138       Cu142   1.999       .  S
O138        C145   1.276       .  A
O139       Cu142   2.003       .  S
O139        C144   1.277       .  A
O140       Cu142   2.005       .  S
O140        C143   1.277       .  A
Cu141      Cu142   2.375       .  S
C144        C295   1.469       .  S
C146        C231   1.471       .  S
C147        C453   1.501       .  S
C147        N148   1.362       .  A
C147        N152   1.361       .  A
N148        C149   1.361       .  A
C149        N150   1.356       .  A
N150        C151   1.355       .  A
C151        N152   1.358       .  A
C153        C462   1.477       .  S
C153        N154   1.361       .  A
C153        N158   1.361       .  A
N154        C155   1.359       .  A
C155        N156   1.356       .  A
N156        C157   1.356       .  A
C157        C169   1.468       .  S
C157        N158   1.359       .  A
O159       Cu167   2.005       .  S
O159        C169   1.278       .  A
O160       Cu167   2.009       .  S
O160        C170   1.278       .  A
O161       Cu167   2.001       .  S
O161        C171   1.276       .  A
O162       Cu167   2.003       .  S
O162        C172   1.276       .  A
O163       Cu168   2.024       .  S
O163        C172   1.280       .  A
O164       Cu168   2.024       .  S
O164        C171   1.280       .  A
O165       Cu168   2.022       .  S
O165        C170   1.278       .  A
O166       Cu168   2.018       .  S
O166        C169   1.278       .  A
Cu167      Cu168   2.375       .  S
C170        C279   1.472       .  S
C171        C181   1.469       .  S
C172        C289   1.470       .  S
C173        C433   1.468       .  S
C173        N174   1.358       .  A
C173        N178   1.358       .  A
N174        C175   1.357       .  A
C175        N176   1.358       .  A
N176        C177   1.358       .  A
C177        N178   1.357       .  A
C179        C442   1.492       .  S
C179        N180   1.362       .  A
C179        N184   1.360       .  A
N180        C181   1.358       .  A
C181        N182   1.357       .  A
N182        C183   1.357       .  A
C183        C208   1.467       .  S
C183        N184   1.356       .  A
C185        C413   1.479       .  S
C185        N186   1.359       .  A
C185        N190   1.361       .  A
N186        C187   1.358       .  A
C187        C248   1.467       .  S
C187        N188   1.357       .  A
N188        C189   1.358       .  A
C189        N190   1.360       .  A
C191        C422   1.499       .  S
C191        N192   1.366       .  A
C191        N196   1.359       .  A
N192        C193   1.363       .  A
C193        C210   1.473       .  S
C193        N194   1.356       .  A
N194        C195   1.355       .  A
C195        C310   1.466       .  S
C195        N196   1.357       .  A
O197       Cu205   2.000       .  S
O197        C207   1.276       .  A
O198       Cu205   1.998       .  S
O198        C208   1.276       .  A
O199       Cu205   2.008       .  S
O199        C209   1.278       .  A
O200       Cu205   2.011       .  S
O200        C210   1.279       .  A
O201       Cu206   2.026       .  S
O201        C210   1.279       .  A
O202       Cu206   2.021       .  S
O202        C209   1.278       .  A
O203       Cu206   2.021       .  S
O203        C208   1.279       .  A
O204       Cu206   2.025       .  S
O204        C207   1.280       .  A
Cu205      Cu206   2.375       .  S
C211        C402   1.500       .  S
C211        N212   1.361       .  A
C211        N216   1.363       .  A
N212        C213   1.357       .  A
C213        N214   1.355       .  A
N214        C215   1.356       .  A
C215        C246   1.468       .  S
C215        N216   1.360       .  A
C217        C393   1.472       .  S
C217        N218   1.357       .  A
C217        N222   1.361       .  A
N218        C219   1.356       .  A
C219        N220   1.357       .  A
N220        C221   1.359       .  A
C221        C312   1.469       .  S
C221        N222   1.360       .  A
C223        C373   1.476       .  S
C223        N224   1.360       .  A
C223        N228   1.362       .  A
N224        C225   1.358       .  A
C225        N226   1.358       .  A
N226        C227   1.358       .  A
C227        N228   1.361       .  A
C229        C382   1.500       .  S
C229        N230   1.365       .  A
C229        N234   1.360       .  A
N230        C231   1.361       .  A
C231        N232   1.357       .  A
N232        C233   1.355       .  A
C233        C247   1.468       .  S
C233        N234   1.356       .  A
O235       Cu243   2.002       .  S
O235        C245   1.277       .  A
O236       Cu243   1.999       .  S
O236        C246   1.276       .  A
O237       Cu243   2.005       .  S
O237        C247   1.277       .  A
O238       Cu243   2.005       .  S
O238        C248   1.277       .  A
O239       Cu244   2.014       .  S
O239        C248   1.278       .  A
O240       Cu244   2.016       .  S
O240        C247   1.278       .  A
O241       Cu244   2.023       .  S
O241        C246   1.279       .  A
O242       Cu244   2.029       .  S
O242        C245   1.279       .  A
Cu243      Cu244   2.376       .  S
C245        C259   1.472       .  S
C249        C353   1.487       .  S
C249        N250   1.363       .  A
C249        N254   1.361       .  A
N250        C251   1.362       .  A
C251        N252   1.357       .  A
N252        C253   1.356       .  A
C253        N254   1.358       .  A
C255        C362   1.490       .  S
C255        N256   1.360       .  A
C255        N260   1.365       .  A
N256        C257   1.356       .  A
C257        C274   1.466       .  S
C257        N258   1.355       .  A
N258        C259   1.356       .  A
C259        N260   1.362       .  A
O261       Cu269   2.006       .  S
O261        C271   1.277       .  A
O262       Cu269   2.004       .  S
O262        C272   1.277       .  A
O263       Cu269   2.008       .  S
O263        C273   1.277       .  A
O264       Cu269   2.002       .  S
O264        C274   1.277       .  A
O265       Cu270   2.015       .  S
O265        C274   1.278       .  A
O266       Cu270   2.023       .  S
O266        C273   1.279       .  A
O267       Cu270   2.021       .  S
O267        C272   1.278       .  A
O268       Cu270   2.018       .  S
O268        C271   1.279       .  A
Cu269      Cu270   2.376       .  S
C272        C283   1.469       .  S
C275        C333   1.473       .  S
C275        N276   1.357       .  A
C275        N280   1.363       .  A
N276        C277   1.354       .  A
C277        N278   1.356       .  A
N278        C279   1.357       .  A
C279        N280   1.362       .  A
C281        C342   1.504       .  S
C281        N282   1.364       .  A
C281        N286   1.360       .  A
N282        C283   1.360       .  A
C283        N284   1.355       .  A
N284        C285   1.354       .  A
C285        C311   1.466       .  S
C285        N286   1.356       .  A
C287        C322   1.477       .  S
C287        N288   1.359       .  A
C287        N292   1.361       .  A
N288        C289   1.357       .  A
C289        N290   1.359       .  A
N290        C291   1.359       .  A
C291        N292   1.360       .  A
C293        C313   1.495       .  S
C293        N294   1.362       .  A
C293        N298   1.362       .  A
N294        C295   1.359       .  A
C295        N296   1.356       .  A
N296        C297   1.356       .  A
C297        C309   1.469       .  S
C297        N298   1.359       .  A
O299       Cu307   2.008       .  S
O299        C309   1.278       .  A
O300       Cu307   2.004       .  S
O300        C310   1.277       .  A
O301       Cu307   1.995       .  S
O301        C311   1.276       .  A
O302       Cu307   1.999       .  S
O302        C312   1.276       .  A
O303       Cu308   2.027       .  S
O303        C312   1.280       .  A
O304       Cu308   2.020       .  S
O304        C311   1.279       .  A
O305       Cu308   2.011       .  S
O305        C310   1.278       .  A
O306       Cu308   2.019       .  S
O306        C309   1.278       .  A
Cu307      Cu308   2.376       .  S
C313        C314   1.421       .  A
C313        C318   1.420       .  A
C314        C315   1.408       .  A
C314       Br326   1.935       .  S
C315        C316   1.406       .  A
C315       Br330   1.932       .  S
C316        C319   1.487       .  S
C316        C317   1.407       .  A
C317        C318   1.410       .  A
C317       Br325   1.931       .  S
C318       Br329   1.932       .  S
C319        C320   1.411       .  A
C319        C324   1.410       .  A
C320        C321   1.409   1_455  A
C320       Br331   1.928       .  S
C321        C322   1.409       .  A
C321       Br327   1.929       .  S
C322        C323   1.412       .  A
C323        C324   1.407   1_655  A
C323       Br332   1.932       .  S
C324       Br328   1.931       .  S
C333        C334   1.408       .  A
C333        C338   1.410       .  A
C334        C335   1.409   1_655  A
C334       Br346   1.927       .  S
C335        C336   1.410       .  A
C335       Br350   1.928       .  S
C336        C339   1.485       .  S
C336        C337   1.409       .  A
C337        C338   1.405   1_455  A
C337       Br345   1.929       .  S
C338       Br349   1.932       .  S
C339        C340   1.403       .  A
C339        C344   1.405       .  A
C340        C341   1.408       .  A
C340       Br351   1.935       .  S
C341        C342   1.428       .  A
C341       Br347   1.938       .  S
C342        C343   1.425       .  A
C343        C344   1.411       .  A
C343       Br352   1.935       .  S
C344       Br348   1.932       .  S
C353        C354   1.415       .  A
C353        C358   1.416       .  A
C354        C355   1.413   1_655  A
C354       Br366   1.929       .  S
C355        C356   1.409       .  A
C355       Br370   1.929       .  S
C356        C359   1.489       .  S
C356        C357   1.408       .  A
C357        C358   1.407   1_455  A
C357       Br365   1.930       .  S
C358       Br369   1.934       .  S
C359        C360   1.406       .  A
C359        C364   1.408       .  A
C360        C361   1.407       .  A
C360       Br371   1.929       .  S
C361        C362   1.419       .  A
C361       Br367   1.935       .  S
C362        C363   1.416       .  A
C363        C364   1.412       .  A
C363       Br372   1.931       .  S
C364       Br368   1.928       .  S
C373        C374   1.409       .  A
C373        C378   1.408       .  A
C374        C375   1.407   1_655  A
C374       Br386   1.931       .  S
C375        C376   1.412       .  A
C375       Br390   1.931       .  S
C376        C379   1.489       .  S
C376        C377   1.411       .  A
C377        C378   1.410   1_455  A
C377       Br385   1.928       .  S
C378       Br389   1.928       .  S
C379        C380   1.407       .  A
C379        C384   1.405       .  A
C380        C381   1.410       .  A
C380       Br391   1.931       .  S
C381        C382   1.420       .  A
C381       Br387   1.933       .  S
C382        C383   1.426       .  A
C383        C384   1.409       .  A
C383       Br392   1.937       .  S
C384       Br388   1.931       .  S
C393        C394   1.409       .  A
C393        C398   1.407       .  A
C394        C395   1.406       .  A
C394       Br406   1.930       .  S
C395        C396   1.410       .  A
C395       Br410   1.931       .  S
C396        C399   1.485       .  S
C396        C397   1.411       .  A
C397        C398   1.408       .  A
C397       Br405   1.928       .  S
C398       Br409   1.929       .  S
C399        C400   1.405       .  A
C399        C404   1.404       .  A
C400        C401   1.410   1_554  A
C400       Br411   1.933       .  S
C401        C402   1.423       .  A
C401       Br407   1.933       .  S
C402        C403   1.425       .  A
C403        C404   1.408   1_556  A
C403       Br412   1.937       .  S
C404       Br408   1.932       .  S
C413        C414   1.410       .  A
C413        C418   1.411       .  A
C414        C415   1.410   1_556  A
C414       Br426   1.929       .  S
C415        C416   1.410       .  A
C415       Br430   1.929       .  S
C416        C419   1.490       .  S
C416        C417   1.410       .  A
C417        C418   1.408   1_554  A
C417       Br425   1.929       .  S
C418       Br429   1.931       .  S
C419        C420   1.408       .  A
C419        C424   1.406       .  A
C420        C421   1.410       .  A
C420       Br431   1.930       .  S
C421        C422   1.417       .  A
C421       Br427   1.932       .  S
C422        C423   1.425       .  A
C423        C424   1.410       .  A
C423       Br432   1.933       .  S
C424       Br428   1.934       .  S
C433        C434   1.406       .  A
C433        C438   1.408       .  A
C434        C435   1.406   1_556  A
C434       Br446   1.928       .  S
C435        C436   1.411       .  A
C435       Br450   1.929       .  S
C436        C439   1.484       .  S
C436        C437   1.412       .  A
C437        C438   1.405   1_554  A
C437       Br445   1.932       .  S
C438       Br449   1.931       .  S
C439        C440   1.407       .  A
C439        C444   1.406       .  A
C440        C441   1.408       .  A
C440       Br451   1.932       .  S
C441        C442   1.419       .  A
C441       Br447   1.932       .  S
C442        C443   1.422       .  A
C443        C444   1.405       .  A
C443       Br452   1.936       .  S
C444       Br448   1.932       .  S
C453        C454   1.425       .  A
C453        C458   1.422       .  A
C454        C455   1.411   1_556  A
C454       Br466   1.934       .  S
C455        C456   1.406       .  A
C455       Br470   1.934       .  S
C456        C459   1.488       .  S
C456        C457   1.406       .  A
C457        C458   1.409   1_554  A
C457       Br465   1.932       .  S
C458       Br469   1.935       .  S
C459        C460   1.411       .  A
C459        C464   1.410       .  A
C460        C461   1.409       .  A
C460       Br471   1.929       .  S
C461        C462   1.409       .  A
C461       Br467   1.928       .  S
C462        C463   1.410       .  A
C463        C464   1.407       .  A
C463       Br472   1.930       .  S
C464       Br468   1.929       .  S
C473        C474   1.415       .  A
C473        C478   1.413       .  A
C474        C475   1.406       .  A
C474       Br486   1.934       .  S
C475        C476   1.408       .  A
C475       Br490   1.929       .  S
C476        C479   1.487   1_545  S
C476        C477   1.409       .  A
C477        C478   1.410       .  A
C477       Br485   1.929       .  S
C478       Br489   1.929       .  S
C479        C480   1.406       .  A
C479        C484   1.408       .  A
C480        C481   1.407       .  A
C480       Br491   1.931       .  S
C481        C482   1.418       .  A
C481       Br487   1.934       .  S
C482        C483   1.415       .  A
C483        C484   1.410       .  A
C483       Br492   1.931       .  S
C484       Br488   1.929       .  S
C493        C494   1.409       .  A
C493        C498   1.409       .  A
C494        C495   1.405       .  A
C494       Br506   1.931       .  S
C495        C496   1.410       .  A
C495       Br510   1.931       .  S
C496        C499   1.487   1_545  S
C496        C497   1.411       .  A
C497        C498   1.411       .  A
C497       Br505   1.928       .  S
C498       Br509   1.928       .  S
C499        C500   1.403       .  A
C499        C504   1.406       .  A
C500        C501   1.407       .  A
C500       Br511   1.931       .  S
C501        C502   1.425       .  A
C501       Br507   1.937       .  S
C502        C503   1.425       .  A
C503        C504   1.412       .  A
C503       Br512   1.934       .  S
C504       Br508   1.932       .  S
C513        C514   1.414       .  A
C513        C518   1.418       .  A
C514        C515   1.411       .  A
C514       Br526   1.929       .  S
C515        C516   1.409       .  A
C515       Br530   1.928       .  S
C516        C519   1.489   1_545  S
C516        C517   1.408       .  A
C517        C518   1.408       .  A
C517       Br525   1.933       .  S
C518       Br529   1.934       .  S
C519        C520   1.409       .  A
C519        C524   1.407       .  A
C520        C521   1.412       .  A
C520       Br531   1.928       .  S
C521        C522   1.415       .  A
C521       Br527   1.930       .  S
C522        C523   1.417       .  A
C523        C524   1.406       .  A
C523       Br532   1.934       .  S
C524       Br528   1.932       .  S
C533        C534   1.407       .  A
C533        C538   1.410       .  A
C534        C535   1.408       .  A
C534       Br546   1.928       .  S
C535        C536   1.410       .  A
C535       Br550   1.929       .  S
C536        C539   1.485   1_565  S
C536        C537   1.409       .  A
C537        C538   1.407       .  A
C537       Br545   1.930       .  S
C538       Br549   1.930       .  S
C539        C540   1.401       .  A
C539        C544   1.401       .  A
C540        C541   1.411       .  A
C540       Br551   1.935       .  S
C541        C542   1.434       .  A
C541       Br547   1.939       .  S
C542        C543   1.435       .  A
C543        C544   1.411       .  A
C543       Br552   1.939       .  S
C544       Br548   1.936       .  S
