geometry optimzed in LAMMPS
_audit_creation_date              2020-12-01 
_audit_creation_method            'lammps2cif' 
_symmetry_space_group_name_H-M    'P1' 
_symmetry_Int_Tables_number       1 
_symmetry_cell_setting            triclinic 
loop_ 
_symmetry_equiv_pos_as_xyz 
  x,y,z 
_cell_length_a                    40.49299914 
_cell_length_b                    40.56741110293777 
_cell_length_c                    55.80375180157218 
_cell_angle_alpha                 89.95091634743166 
_cell_angle_beta                  90.0256829759783 
_cell_angle_gamma                 89.95072380661189 
loop_ 
_atom_site_label 
_atom_site_type_symbol 
_atom_site_fract_x 
_atom_site_fract_y 
_atom_site_fract_z 
_atom_site_charge 
O1          O  0.85469038  0.94199405  0.64443574    -0.71300
O2          O  0.81800110  0.85541339  0.64349225    -0.71500
O3          O  0.81937454  0.90461361  0.67564282    -0.71400
O4          O  0.85280676  0.89273588  0.61269136    -0.71400
O5          O  0.89982260  0.87705402  0.62746066    -0.71300
O6          O  0.86318458  0.88120075  0.69007580    -0.71300
O7          O  0.86515643  0.83567771  0.65522412    -0.71300
O8          O  0.89827080  0.92251304  0.66225065    -0.71500
V9          V  0.83700819  0.89839114  0.64440111     1.35200
V10         V  0.88073190  0.87952863  0.65852780     1.35200
C11         C  0.88297772  0.94681106  0.65341911     0.78000
C12         C  0.83572784  0.83065580  0.64862923     0.78000
C13         C  0.83500095  0.89373613  0.69364665     0.77900
C14         C  0.88228549  0.88354274  0.60928955     0.77800
O15         O  0.06867852  0.13529036  0.62373440    -0.71300
O16         O  0.15215925  0.17956134  0.62174905    -0.71500
O17         O  0.11793832  0.14148285  0.59121474    -0.71400
O18         O  0.10321795  0.17410780  0.65397024    -0.71400
O19         O  0.12852831  0.13158921  0.66875408    -0.71300
O20         O  0.14016089  0.09717121  0.60597623    -0.71300
O21         O  0.17559386  0.13538350  0.63541644    -0.71300
O22         O  0.09294345  0.09292692  0.63955090    -0.71500
V23         V  0.11083665  0.15675970  0.62290470     1.35200
V24         V  0.13373329  0.11509649  0.63712001     1.35200
C25         C  0.06661257  0.10643712  0.63238391     0.78000
C26         C  0.17826642  0.16479812  0.62834903     0.78000
C27         C  0.13202102  0.11406460  0.58785000     0.77900
C28         C  0.11443602  0.15905099  0.67206947     0.77800
O29         O  0.07083189  0.29432973  0.88136961    -0.71300
O30         O  0.15744509  0.25805704  0.88337773    -0.71500
O31         O  0.12049068  0.29472590  0.91290501    -0.71400
O32         O  0.10751855  0.25725853  0.85147226    -0.71400
O33         O  0.12905019  0.30065800  0.83494669    -0.71300
O34         O  0.13790555  0.33996290  0.89654114    -0.71300
O35         O  0.17683935  0.30330462  0.86807495    -0.71300
O36         O  0.09019034  0.33754295  0.86312194    -0.71500
V37         V  0.11443730  0.27689117  0.88189496     1.35200
V38         V  0.13310191  0.31951927  0.86598316     1.35200
C39         C  0.06592628  0.32227014  0.87196388     0.78000
C40         C  0.18196945  0.27476846  0.87632422     0.78000
C41         C  0.13100791  0.32385665  0.91533155     0.77900
C42         C  0.11634889  0.27233942  0.83271422     0.77800
O43         O  0.87328622  0.50037119  0.90205875    -0.71300
O44         O  0.82716468  0.58213603  0.90506208    -0.71500
O45         O  0.83216854  0.53310776  0.87299535    -0.71400
O46         O  0.86823532  0.54949774  0.93459354    -0.71400
O47         O  0.90984130  0.57460428  0.91840199    -0.71300
O48         O  0.87417098  0.55741681  0.85666918    -0.71300
O49         O  0.86931444  0.60658878  0.88873571    -0.71300
O50         O  0.91537891  0.52567383  0.88637759    -0.71500
V51         V  0.85103995  0.54172823  0.90341560     1.35200
V52         V  0.89133561  0.56552453  0.88782281     1.35200
C53         C  0.90223675  0.49930536  0.89360573     0.78000
C54         C  0.84066424  0.60824200  0.89748057     0.78000
C55         C  0.84697783  0.54241712  0.85425122     0.77900
C56         C  0.89486254  0.56545481  0.93713722     0.77800
O57         O  0.51537871  0.29103144  0.62278382    -0.71300
O58         O  0.42831516  0.25595881  0.61859149    -0.71500
O59         O  0.46767356  0.29036094  0.58889105    -0.71400
O60         O  0.47563611  0.25652731  0.65223888    -0.71400
O61         O  0.45980856  0.30379373  0.66651397    -0.71300
O62         O  0.44439101  0.33436096  0.60302606    -0.71300
O63         O  0.40923284  0.30022063  0.63538871    -0.71300
O64         O  0.49469337  0.33800323  0.63407756    -0.71500
V65         V  0.47145268  0.27432590  0.62086443     1.35200
V66         V  0.45241832  0.31822447  0.63447834     1.35200
C67         C  0.51960401  0.32078793  0.62876886     0.78000
C68         C  0.40394742  0.27182984  0.62691270     0.78000
C69         C  0.45383866  0.31787651  0.58505464     0.77900
C70         C  0.46939475  0.27454108  0.67016138     0.77800
O71         O  0.72527135  0.48716227  0.64095492    -0.71300
O72         O  0.76756888  0.57120604  0.64251303    -0.71500
O73         O  0.76060940  0.52082011  0.67353513    -0.71400
O74         O  0.73238873  0.53741054  0.60977202    -0.71400
O75         O  0.68569645  0.55592871  0.62332470    -0.71300
O76         O  0.71742923  0.54634993  0.68699268    -0.71300
O77         O  0.72103208  0.59358150  0.65314345    -0.71300
O78         O  0.68186353  0.50918853  0.65710107    -0.71500
V79         V  0.74567288  0.52955328  0.64194178     1.35200
V80         V  0.70240178  0.55084512  0.65491178     1.35200
C81         C  0.69631698  0.48383361  0.64917604     0.78000
C82         C  0.75101605  0.59679898  0.64746194     0.78000
C83         C  0.74406573  0.53111958  0.69123677     0.77900
C84         C  0.70394861  0.54900085  0.60563712     0.77800
O85         O  0.71362770  0.94439865  0.90625989    -0.71300
O86         O  0.75393648  0.85977258  0.91015723    -0.71500
O87         O  0.74894433  0.90620967  0.87635415    -0.71400
O88         O  0.71852581  0.89765359  0.94050029    -0.71400
O89         O  0.67345737  0.87497156  0.92762097    -0.71300
O90         O  0.70375664  0.88370957  0.86353273    -0.71300
O91         O  0.70852458  0.83730575  0.89745582    -0.71300
O92         O  0.66830848  0.92135590  0.89382168    -0.71500
V93         V  0.73286760  0.90161424  0.90813184     1.35200
V94         V  0.68940212  0.87984356  0.89584351     1.35200
C95         C  0.68394370  0.94709410  0.89950877     0.78000
C96         C  0.73820123  0.83419876  0.90403138     0.78000
C97         C  0.73183215  0.89583160  0.85895543     0.77900
C98         C  0.69082951  0.88466118  0.94508967     0.77800
O99         O  0.52258110  0.15754046  0.88488755    -0.71300
O100        O  0.43659581  0.19513056  0.88928806    -0.71500
O101        O  0.47418881  0.15670492  0.91752057    -0.71400
O102        O  0.48476934  0.19651549  0.85631414    -0.71400
O103        O  0.46585443  0.15213716  0.83940797    -0.71300
O104        O  0.45165043  0.11393544  0.90081649    -0.71300
O105        O  0.41637567  0.15219618  0.87140666    -0.71300
O106        O  0.50130155  0.11364677  0.86880292    -0.71500
V107        V  0.47922785  0.17567002  0.88661474     1.35200
V108        V  0.45927581  0.13383948  0.87040788     1.35200
C109        C  0.52633119  0.12874905  0.87661389     0.78000
C110        C  0.41172394  0.17982978  0.88123948     0.78000
C111        C  0.46051918  0.12884840  0.91965273     0.77900
C112        C  0.47683766  0.18117781  0.83744880     0.77800
O113        O  0.34896375  0.44243417  0.38420204    -0.71300
O114        O  0.31057045  0.35675902  0.38797526    -0.71500
O115        O  0.34888633  0.39361370  0.41653637    -0.71400
O116        O  0.30985264  0.40528727  0.35526963    -0.71400
O117        O  0.35411173  0.38566106  0.33849878    -0.71300
O118        O  0.39219717  0.37184201  0.40013742    -0.71300
O119        O  0.35383394  0.33628404  0.37051625    -0.71300
O120        O  0.39270925  0.42106368  0.36788203    -0.71500
V121        V  0.33039567  0.39921605  0.38560564     1.35200
V122        V  0.37235385  0.37915436  0.36956628     1.35200
C123        C  0.37787867  0.44607780  0.37597769     0.78000
C124        C  0.32578989  0.33186331  0.37991022     0.78000
C125        C  0.37689184  0.38027273  0.41896625     0.77900
C126        C  0.32521929  0.39721749  0.33645374     0.77800
O127        O  0.56289195  0.63482390  0.40298778    -0.71300
O128        O  0.64674553  0.67668592  0.41018988    -0.71500
O129        O  0.60003216  0.67584969  0.37622614    -0.71400
O130        O  0.60996656  0.63617304  0.43721297    -0.71400
O131        O  0.63552400  0.59482134  0.42110991    -0.71300
O132        O  0.62233448  0.63308608  0.35951618    -0.71300
O133        O  0.67004828  0.63517438  0.39243679    -0.71300
O134        O  0.58750020  0.59206661  0.38791446    -0.71500
V135        V  0.60527110  0.65502656  0.40635479     1.35200
V136        V  0.62827009  0.61454065  0.39056091     1.35200
C137        C  0.56105378  0.60598137  0.39441385     0.78000
C138        C  0.67261409  0.66327159  0.40194715     0.78000
C139        C  0.61009814  0.66167282  0.35744332     0.77900
C140        C  0.62527031  0.60926123  0.43980288     0.77800
O141        O  0.01311764  0.65875758  0.14001541    -0.71300
O142        O  0.92655089  0.69391890  0.14506895    -0.71500
O143        O  0.97827960  0.68979684  0.17448959    -0.71400
O144        O  0.96106828  0.66294019  0.11056535    -0.71400
O145        O  0.94834309  0.61406354  0.12347028    -0.71300
O146        O  0.95583474  0.64481792  0.18761492    -0.71300
O147        O  0.90795686  0.64532552  0.15436452    -0.71300
O148        O  0.99608603  0.61349233  0.15680945    -0.71500
V149        V  0.96947376  0.67548513  0.14277642     1.35200
V150        V  0.95239672  0.63024460  0.15533111     1.35200
C151        C  0.01933922  0.63018039  0.14783019     0.78000
C152        C  0.90246007  0.67549958  0.15032054     0.78000
C153        C  0.96862021  0.67262437  0.19205448     0.77900
C154        C  0.95277793  0.63354529  0.10604360     0.77800
O155        O  0.21086341  0.45119726  0.12448290    -0.71300
O156        O  0.24640482  0.36478855  0.11757848    -0.71500
O157        O  0.21358716  0.40645468  0.08898666    -0.71400
O158        O  0.24426108  0.40899340  0.15321465    -0.71400
O159        O  0.19641195  0.39185591  0.16564373    -0.71300
O160        O  0.16878009  0.38220133  0.10082801    -0.71300
O161        O  0.20124444  0.34442946  0.13246622    -0.71300
O162        O  0.16361139  0.42945439  0.13391899    -0.71500
V163        V  0.22793014  0.40756620  0.12134389     1.35200
V164        V  0.18338451  0.38745019  0.13301383     1.35200
C165        C  0.18055508  0.45477022  0.12934809     0.78000
C166        C  0.22988262  0.33993418  0.12417316     0.78000
C167        C  0.18648655  0.39278397  0.08377906     0.77900
C168        C  0.22556664  0.40094961  0.17038648     0.77800
O169        O  0.36710280  0.00662320  0.12439039    -0.71300
O170        O  0.32055969  0.08784114  0.11685590    -0.71500
O171        O  0.36241006  0.05217016  0.08955513    -0.71400
O172        O  0.32496857  0.04215043  0.15153652    -0.71400
O173        O  0.36749977  0.06639364  0.16710999    -0.71300
O174        O  0.40232056  0.08117334  0.10478399    -0.71300
O175        O  0.36122581  0.11333907  0.13395852    -0.71300
O176        O  0.40911660  0.03398640  0.13803816    -0.71500
V177        V  0.34450466  0.04765902  0.12085816     1.35200
V178        V  0.38424909  0.07311359  0.13567742     1.35200
C179        C  0.39658072  0.00678691  0.13196484     0.78000
C180        C  0.33289467  0.11448225  0.12458572     0.78000
C181        C  0.38844152  0.06885702  0.08657760     0.77900
C182        C  0.33975591  0.05264443  0.16999067     0.77800
O183        O  0.56415631  0.80024912  0.14907157    -0.71300
O184        O  0.64814382  0.75805477  0.14965544    -0.71500
O185        O  0.59903611  0.76487898  0.18120018    -0.71400
O186        O  0.61338754  0.79317905  0.11737583    -0.71400
O187        O  0.63268317  0.83962306  0.13047940    -0.71300
O188        O  0.62480838  0.80797621  0.19447479    -0.71300
O189        O  0.67098387  0.80426017  0.16018998    -0.71300
O190        O  0.58650471  0.84373399  0.16482849    -0.71500
V191        V  0.60656371  0.77994273  0.14957852     1.35200
V192        V  0.62825863  0.82308643  0.16226274     1.35200
C193        C  0.56105932  0.82930070  0.15697654     0.78000
C194        C  0.67392172  0.77416860  0.15481718     0.78000
C195        C  0.61059967  0.78082895  0.19874746     0.77900
C196        C  0.62515604  0.82135928  0.11291152     0.77800
O197        O  0.00916494  0.78957529  0.40623658    -0.71300
O198        O  0.92299273  0.75292034  0.41224064    -0.71500
O199        O  0.97058926  0.75138113  0.37855435    -0.71400
O200        O  0.96136544  0.79103638  0.43985462    -0.71400
O201        O  0.94188493  0.83519282  0.42316366    -0.71300
O202        O  0.94804189  0.79434998  0.36217470    -0.71300
O203        O  0.90208036  0.79724584  0.39661403    -0.71300
O204        O  0.98797288  0.83228318  0.38835186    -0.71500
V205        V  0.96566239  0.77205831  0.40892106     1.35200
V206        V  0.94546300  0.81395876  0.39294864     1.35200
C207        C  0.01312690  0.81685480  0.39567011     0.78000
C208        C  0.89777432  0.76897883  0.40561465     0.78000
C209        C  0.96068326  0.76601513  0.35985390     0.77900
C210        C  0.94964669  0.81980462  0.44206234     0.77800
O211        O  0.21480064  0.98762511  0.38135739    -0.71300
O212        O  0.25406909  0.07310706  0.38590618    -0.71500
O213        O  0.21816230  0.03472255  0.41524301    -0.71400
O214        O  0.25134830  0.02607452  0.35194344    -0.71400
O215        O  0.20691817  0.04891695  0.33798437    -0.71300
O216        O  0.17306463  0.05607623  0.40124384    -0.71300
O217        O  0.20873166  0.09467842  0.37244358    -0.71300
O218        O  0.17068963  0.01027064  0.36676030    -0.71500
V219        V  0.23378680  0.03072064  0.38331137     1.35200
V220        V  0.19074642  0.05194729  0.36985869     1.35200
C221        C  0.18561622  0.98452341  0.37347149     0.78000
C222        C  0.23776249  0.09861113  0.38016188     0.78000
C223        C  0.19007913  0.04728531  0.41915819     0.77900
C224        C  0.23512636  0.03656120  0.33413497     0.77800
C225        C  0.09200994  0.86331766  0.40654757    -0.01500
C226        C  0.10262917  0.86946278  0.38282903     0.07100
C227        C  0.08646194  0.85363707  0.36378114    -0.07500
C228        C  0.05803802  0.83487275  0.36783259     0.04500
C229        C  0.04617551  0.83064138  0.39137220    -0.14700
C230        C  0.06408988  0.84366323  0.41064340    -0.08000
C231        C  0.12613628  0.89662161  0.37735287     0.05500
C232        C  0.15874911  0.89558630  0.38593406    -0.09200
C233        C  0.17968619  0.92308504  0.38372009     0.00500
C234        C  0.16777584  0.95239152  0.37288317     0.00300
C235        C  0.13588740  0.95221007  0.36285999    -0.12700
C236        C  0.11514161  0.92499360  0.36510064     0.00800
C237        C  0.21271910  0.92061799  0.39327135     0.40100
C238        C  0.08184057  0.92776199  0.35596520     0.36700
C239        C  0.10746254  0.87928782  0.42675950     0.36500
C240        C  0.04046000  0.82156359  0.34749160     0.37200
N241        N  0.23924293  0.91842635  0.40084841    -0.43600
N242        N  0.05519899  0.92994961  0.34861500    -0.44000
N243        N  0.02629190  0.81099728  0.33120622    -0.41400
N244        N  0.11985129  0.89217270  0.44292270    -0.42800
H245        H  0.05489721  0.84049091  0.42875431     0.13300
H246        H  0.09463874  0.85802597  0.34554761     0.09800
H247        H  0.16750029  0.87359837  0.39501193     0.10900
H248        H  0.12631795  0.97404903  0.35403309     0.16700
C249        C  0.27823482  0.02893311  0.21834340    -0.01500
C250        C  0.29249702  0.04259521  0.23908129     0.07100
C251        C  0.32262125  0.05933368  0.23729803    -0.07500
C252        C  0.33855127  0.06300885  0.21517611     0.04500
C253        C  0.32443885  0.04920290  0.19417593    -0.14700
C254        C  0.29421600  0.03221749  0.19621547    -0.08000
C255        C  0.27651053  0.03980075  0.26290083     0.05500
C256        C  0.29088781  0.01938823  0.28027523    -0.09200
C257        C  0.27747416  0.01706167  0.30335986     0.00500
C258        C  0.24910842  0.03577670  0.30946693    -0.01300
C259        C  0.23447737  0.05572919  0.29173545    -0.12700
C260        C  0.24796332  0.05796309  0.26869874     0.00800
C261        C  0.29329390  0.99499809  0.32013720     0.40100
C262        C  0.23278079  0.07994816  0.25155989     0.36700
C263        C  0.24734784  0.01122825  0.21941140     0.36500
C264        C  0.36888857  0.08168003  0.21477551     0.37200
N265        N  0.30606865  0.97722491  0.33347592    -0.43600
N266        N  0.22061019  0.09757148  0.23782990    -0.44000
N267        N  0.39312289  0.09678425  0.21456970    -0.41400
N268        N  0.22253326  0.99715244  0.22030716    -0.42800
H269        H  0.28283252  0.02148495  0.18046266     0.13300
H270        H  0.33350689  0.06998608  0.25328255     0.09800
H271        H  0.31278722  0.00527752  0.27575737     0.10900
H272        H  0.21288349  0.07041406  0.29600702     0.16700
C273        C  0.41976203  0.91787643  0.14455858    -0.01500
C274        C  0.45449720  0.91955042  0.14361904     0.07100
C275        C  0.46971982  0.94892745  0.13648681    -0.07500
C276        C  0.45117132  0.97710598  0.13169418     0.04500
C277        C  0.41639526  0.97625375  0.13399168    -0.14700
C278        C  0.40092306  0.94621537  0.13969890    -0.08000
C279        C  0.47628284  0.89178671  0.15056231     0.05500
C280        C  0.47919278  0.86446660  0.13534337    -0.09200
C281        C  0.50531054  0.84202187  0.13812116     0.00500
C282        C  0.52911995  0.84714513  0.15633485     0.00300
C283        C  0.52431894  0.87293381  0.17274461    -0.12700
C284        C  0.49818352  0.89508841  0.17005096     0.00800
C285        C  0.50849940  0.81578312  0.12081807     0.40100
C286        C  0.49528330  0.92211283  0.18677360     0.36700
C287        C  0.40314925  0.88785731  0.15138315     0.36500
C288        C  0.46865081  0.00644834  0.12429479     0.37200
N289        N  0.51099687  0.79476013  0.10692836    -0.43600
N290        N  0.49293413  0.94382708  0.20010221    -0.44000
N291        N  0.48268233  0.02993531  0.11839871    -0.41400
N292        N  0.38984192  0.86375282  0.15682076    -0.42800
H293        H  0.37425488  0.94519113  0.14130237     0.13300
H294        H  0.49643719  0.94996227  0.13511534     0.09800
H295        H  0.46235769  0.86190931  0.12033615     0.10900
H296        H  0.54193643  0.87673337  0.18713017     0.16700
C297        C  0.24810327  0.25183011  0.14082515    -0.01500
C298        C  0.26883880  0.24175682  0.12198275     0.07100
C299        C  0.27655958  0.26382706  0.10351199    -0.07500
C300        C  0.26418834  0.29603945  0.10376974     0.04500
C301        C  0.24353129  0.30630834  0.12274987    -0.14700
C302        C  0.23533872  0.28381662  0.14094495    -0.08000
C303        C  0.28499982  0.20920889  0.12235379     0.05500
C304        C  0.27000742  0.18241784  0.11087970    -0.09200
C305        C  0.28483364  0.15115889  0.11122535     0.00500
C306        C  0.31532364  0.14660259  0.12326575     0.00300
C307        C  0.33002343  0.17385985  0.13470252    -0.12700
C308        C  0.31517691  0.20485045  0.13432937     0.00800
C309        C  0.26822353  0.12460990  0.09896078     0.40100
C310        C  0.33129039  0.23191401  0.14641884     0.36700
C311        C  0.24046486  0.23005396  0.16053824     0.36500
C312        C  0.27242474  0.31763182  0.08409223     0.37200
N313        N  0.25477565  0.10342736  0.08909352    -0.43600
N314        N  0.34411634  0.25364078  0.15608964    -0.44000
N315        N  0.27910654  0.33478185  0.06824497    -0.41400
N316        N  0.23449823  0.21264717  0.17639206    -0.42800
H317        H  0.21959257  0.29151183  0.15563842     0.13300
H318        H  0.29272210  0.25598376  0.08910146     0.09800
H319        H  0.24666447  0.18597891  0.10168788     0.10900
H320        H  0.35327764  0.17110555  0.14413744     0.16700
C321        C  0.81064186  0.68570308  0.14103117    -0.01500
C322        C  0.80427732  0.71547851  0.15331863     0.07100
C323        C  0.83027054  0.73130007  0.16535043    -0.07500
C324        C  0.86238220  0.71859318  0.16460122     0.04500
C325        C  0.86878873  0.68912980  0.15200354    -0.14700
C326        C  0.84267378  0.67261322  0.14069989    -0.08000
C327        C  0.77084907  0.73073487  0.15363110     0.05500
C328        C  0.74412510  0.71289068  0.16306559    -0.09200
C329        C  0.71228448  0.72643128  0.16351210     0.00500
C330        C  0.70686890  0.75853573  0.15454220     0.00300
C331        C  0.73368230  0.77661102  0.14557215    -0.12700
C332        C  0.76541254  0.76297687  0.14489876     0.00800
C333        C  0.68598617  0.70756924  0.17434134     0.40100
C334        C  0.79180942  0.78229596  0.13463246     0.36700
C335        C  0.78503482  0.66885897  0.12784644     0.36500
C336        C  0.88814103  0.73564728  0.17752866     0.37200
N337        N  0.66491437  0.69257268  0.18313068    -0.43600
N338        N  0.81299626  0.79779329  0.12647493    -0.44000
N339        N  0.90882405  0.74919252  0.18790590    -0.41400
N340        N  0.76447127  0.65541784  0.11728020    -0.42800
H341        H  0.84751139  0.64996285  0.13099193     0.13300
H342        H  0.82544755  0.75377549  0.17527033     0.09800
H343        H  0.74824661  0.68841466  0.17031455     0.10900
H344        H  0.72972370  0.80132556  0.13869934     0.16700
C345        C  0.95653777  0.67756687  0.25939494    -0.01500
C346        C  0.96889173  0.70914179  0.26473638     0.07100
C347        C  0.98305445  0.72807093  0.24644933    -0.07500
C348        C  0.98430052  0.71644977  0.22285224     0.04500
C349        C  0.97090816  0.68510232  0.21712986    -0.14700
C350        C  0.95759226  0.66584590  0.23579781    -0.08000
C351        C  0.96641690  0.72340328  0.28913376     0.05500
C352        C  0.98595920  0.71047174  0.30762268    -0.09200
C353        C  0.98471619  0.72382074  0.33077375     0.00500
C354        C  0.96331775  0.75062676  0.33574454     0.00300
C355        C  0.94382966  0.76344631  0.31704033    -0.12700
C356        C  0.94520926  0.75011815  0.29395636     0.00800
C357        C  0.00649169  0.71010880  0.34869143     0.40100
C358        C  0.92417152  0.76385629  0.27556894     0.36700
C359        C  0.94158054  0.65730245  0.27769264     0.36500
C360        C  0.99919023  0.73762743  0.20508214     0.37200
N361        N  0.02406038  0.69908662  0.36297240    -0.43600
N362        N  0.90732447  0.77482190  0.26081709    -0.44000
N363        N  0.01117577  0.75469703  0.19092096    -0.41400
N364        N  0.92961391  0.64111845  0.29239815    -0.42800
H365        H  0.94725072  0.64178399  0.23194180     0.13300
H366        H  0.99285728  0.75227467  0.25063909     0.09800
H367        H  0.00254305  0.69011694  0.30384038     0.10900
H368        H  0.92716639  0.78385147  0.32044838     0.16700
C369        C  0.16334321  0.54475392  0.14224931    -0.01500
C370        C  0.13037302  0.54743401  0.13433819     0.07100
C371        C  0.11545904  0.52072619  0.12276390    -0.07500
C372        C  0.13205194  0.49089535  0.12015997     0.04500
C373        C  0.16441383  0.48734902  0.12926490    -0.14700
C374        C  0.18026514  0.51473514  0.13952466    -0.08000
C375        C  0.10905247  0.57616464  0.13951246     0.05500
C376        C  0.09622037  0.59402826  0.12009124    -0.09200
C377        C  0.06804469  0.61363705  0.12282239     0.00500
C378        C  0.05244902  0.61560410  0.14538353     0.00300
C379        C  0.06665506  0.59964838  0.16516903    -0.12700
C380        C  0.09491610  0.58012397  0.16243155     0.00800
C381        C  0.05340419  0.62814926  0.10168188     0.40100
C382        C  0.10715163  0.56200854  0.18288800     0.36700
C383        C  0.17990277  0.57218505  0.15346200     0.36500
C384        C  0.11516836  0.46431674  0.10803120     0.37200
N385        N  0.04147758  0.63952235  0.08473048    -0.43600
N386        N  0.11707157  0.54748699  0.19923935    -0.44000
N387        N  0.10162716  0.44305207  0.09832726    -0.41400
N388        N  0.19321859  0.59419610  0.16241918    -0.42800
H389        H  0.20526106  0.51228724  0.14628234     0.13300
H390        H  0.09018137  0.52287291  0.11646727     0.09800
H391        H  0.10660876  0.59042080  0.10236757     0.10900
H392        H  0.05468974  0.60112231  0.18252544     0.16700
C393        C  0.80749606  0.75388712  0.39218186    -0.01500
C394        C  0.79968417  0.72797619  0.40797541     0.07100
C395        C  0.82372089  0.71645007  0.42401251    -0.07500
C396        C  0.85567214  0.72978017  0.42401720     0.04500
C397        C  0.86397288  0.75503764  0.40755913    -0.14700
C398        C  0.83934240  0.76719208  0.39210491    -0.08000
C399        C  0.76708383  0.71148531  0.40700690     0.05500
C400        C  0.76033038  0.69061478  0.38765559    -0.09200
C401        C  0.72977983  0.67482101  0.38561071     0.00500
C402        C  0.70515659  0.67990030  0.40325235     0.00300
C403        C  0.71192312  0.70115136  0.42252503    -0.12700
C404        C  0.74269539  0.71674739  0.42458491     0.00800
C405        C  0.72413166  0.65458475  0.36472099     0.40100
C406        C  0.74860497  0.73841096  0.44462762     0.36700
C407        C  0.78313686  0.76720346  0.37592033     0.36500
C408        C  0.87901526  0.71760957  0.44147982     0.37200
N409        N  0.71976637  0.63844072  0.34792987    -0.43600
N410        N  0.75340594  0.75579876  0.46068081    -0.44000
N411        N  0.89763045  0.70793285  0.45557607    -0.41400
N412        N  0.76354455  0.77789425  0.36295722    -0.42800
H413        H  0.84510248  0.78674989  0.37952517     0.13300
H414        H  0.81757947  0.69669898  0.43634053     0.09800
H415        H  0.77902765  0.68682669  0.37400543     0.10900
H416        H  0.69329779  0.70528747  0.43615461     0.16700
C417        C  0.59010664  0.72761721  0.31151240    -0.01500
C418        C  0.60671417  0.71612659  0.29104872     0.07100
C419        C  0.62391818  0.68619817  0.29204972    -0.07500
C420        C  0.62502473  0.66764189  0.31320559     0.04500
C421        C  0.60837597  0.67903899  0.33396104    -0.14700
C422        C  0.59096286  0.70910045  0.33267253    -0.08000
C423        C  0.60576578  0.73441297  0.26811389     0.05500
C424        C  0.62632667  0.76182695  0.26491079    -0.09200
C425        C  0.62778354  0.77815121  0.24276656     0.00500
C426        C  0.60810260  0.76700079  0.22337106     0.00300
C427        C  0.58676722  0.74009974  0.22710237    -0.12700
C428        C  0.58557556  0.72380262  0.24914375     0.00800
C429        C  0.65076692  0.80514715  0.24035963     0.40100
C430        C  0.56368979  0.69596822  0.25187660     0.36700
C431        C  0.57178374  0.75816155  0.31108912     0.36500
C432        C  0.64406862  0.63754225  0.31297902     0.37200
N433        N  0.66929300  0.82671354  0.23852304    -0.43600
N434        N  0.54620655  0.67363551  0.25414108    -0.44000
N435        N  0.65940819  0.61346170  0.31263788    -0.41400
N436        N  0.55711009  0.78264817  0.31071744    -0.42800
H437        H  0.57803801  0.71839046  0.34828539     0.13300
H438        H  0.63667932  0.67740811  0.27619729     0.09800
H439        H  0.64191707  0.76990909  0.27958455     0.10900
H440        H  0.57128422  0.73126891  0.21261254     0.16700
C441        C  0.30897889  0.24282330  0.36404469    -0.01500
C442        C  0.28734820  0.23278465  0.38243332     0.07100
C443        C  0.27770794  0.25571083  0.39992031    -0.07500
C444        C  0.28942372  0.28824081  0.39937033     0.04500
C445        C  0.31150706  0.29820761  0.38110566    -0.14700
C446        C  0.32100221  0.27513729  0.36362571    -0.08000
C447        C  0.27432310  0.19855293  0.38342228     0.05500
C448        C  0.29636759  0.17214030  0.38650761    -0.09200
C449        C  0.28530465  0.13937276  0.38596497     0.00500
C450        C  0.25139129  0.13259054  0.38226316     0.00300
C451        C  0.22936468  0.15930714  0.37984400    -0.12700
C452        C  0.24046385  0.19191660  0.38039372     0.00800
C453        C  0.30952808  0.11349907  0.38858917     0.40100
C454        C  0.21673416  0.21809535  0.37692168     0.36700
C455        C  0.31841191  0.22064479  0.34500073     0.36500
C456        C  0.27930371  0.31035705  0.41825331     0.37200
N457        N  0.32907287  0.09286632  0.39070445    -0.43600
N458        N  0.19767124  0.23902922  0.37416491    -0.44000
N459        N  0.27116371  0.32802037  0.43342161    -0.41400
N460        N  0.32584922  0.20283298  0.32973735    -0.42800
H461        H  0.33761304  0.28247264  0.34934576     0.13300
H462        H  0.26113959  0.24805559  0.41413936     0.09800
H463        H  0.32244471  0.17719681  0.38899389     0.10900
H464        H  0.20321627  0.15482282  0.37721456     0.16700
C465        C  0.26247296  0.38703973  0.28681952    -0.01500
C466        C  0.27920629  0.40057507  0.26687016     0.07100
C467        C  0.31056385  0.41466527  0.27038388    -0.07500
C468        C  0.32590413  0.41401090  0.29288430     0.04500
C469        C  0.30934170  0.40013985  0.31267631    -0.14700
C470        C  0.27741728  0.38738526  0.30950790    -0.08000
C471        C  0.26498356  0.39980192  0.24215122     0.05500
C472        C  0.23352488  0.41333098  0.23781627    -0.09200
C473        C  0.21984347  0.41345876  0.21469153     0.00500
C474        C  0.23824347  0.40095493  0.19524646     0.00300
C475        C  0.26964797  0.38758096  0.19952309    -0.12700
C476        C  0.28281963  0.38633274  0.22269545     0.00800
C477        C  0.18741464  0.42751031  0.21124373     0.40100
C478        C  0.31420124  0.37002909  0.22611096     0.36700
C479        C  0.23074187  0.37118604  0.28432082     0.36500
C480        C  0.35841229  0.42822369  0.29529668     0.37200
N481        N  0.16139134  0.43868693  0.20843640    -0.43600
N482        N  0.33931216  0.35691453  0.22886142    -0.44000
N483        N  0.38447973  0.43958682  0.29723135    -0.41400
N484        N  0.20532113  0.35845587  0.28233509    -0.42800
H485        H  0.26465551  0.37642969  0.32463208     0.13300
H486        H  0.32334526  0.42584068  0.25536341     0.09800
H487        H  0.21970803  0.42407352  0.25250773     0.10900
H488        H  0.28364666  0.37728221  0.18473471     0.16700
C489        C  0.50148955  0.53465066  0.39110746    -0.01500
C490        C  0.47120528  0.55019984  0.38588529     0.07100
C491        C  0.46993798  0.58471446  0.38441016    -0.07500
C492        C  0.49869336  0.60372595  0.38753496     0.04500
C493        C  0.52924424  0.58798972  0.39226643    -0.14700
C494        C  0.53002991  0.55346944  0.39416111    -0.08000
C495        C  0.44141463  0.52995652  0.38102580     0.05500
C496        C  0.41949404  0.52306743  0.39982915    -0.09200
C497        C  0.39640725  0.49739281  0.39784813     0.00500
C498        C  0.39531924  0.47811562  0.37676626     0.00300
C499        C  0.41559396  0.48677284  0.35735514    -0.12700
C500        C  0.43833428  0.51260084  0.35926867     0.00800
C501        C  0.37667979  0.48915609  0.41855134     0.40100
C502        C  0.45981823  0.51953568  0.33924503     0.36700
C503        C  0.50387531  0.49921931  0.39317004     0.36500
C504        C  0.49647375  0.63898909  0.38447203     0.37200
N505        N  0.36093653  0.48242299  0.43515091    -0.43600
N506        N  0.47706687  0.52518285  0.32323378    -0.44000
N507        N  0.49469546  0.66724786  0.38190162    -0.41400
N508        N  0.50564505  0.47083040  0.39476843    -0.42800
H509        H  0.55315743  0.54101334  0.39798428     0.13300
H510        H  0.44668333  0.59670232  0.38025153     0.09800
H511        H  0.42201476  0.53618629  0.41665647     0.10900
H512        H  0.41480346  0.47225696  0.34105075     0.16700
C513        C  0.42069927  0.11396151  0.03227717    -0.01500
C514        C  0.42418016  0.08828133  0.01538331     0.07100
C515        C  0.41683765  0.05581661  0.02233261    -0.07500
C516        C  0.40549774  0.04885889  0.04553931     0.04500
C517        C  0.40181709  0.07461995  0.06231621    -0.14700
C518        C  0.40998838  0.10690352  0.05557736    -0.08000
C519        C  0.43476136  0.09516569  0.99032335     0.05500
C520        C  0.46587787  0.10932409  0.98623028    -0.09200
C521        C  0.47538230  0.11929462  0.96319536     0.00500
C522        C  0.45359278  0.11491220  0.94367405     0.00300
C523        C  0.42325301  0.09903245  0.94756570    -0.12700
C524        C  0.41362321  0.08937626  0.97065153     0.00800
C525        C  0.50776524  0.13353281  0.96005286     0.40100
C526        C  0.38118060  0.07532722  0.97389561     0.36700
C527        C  0.42644433  0.14794502  0.02578465     0.36500
C528        C  0.39872913  0.01504393  0.05196241     0.37200
N529        N  0.53377889  0.14482643  0.95758780    -0.43600
N530        N  0.35517821  0.06408674  0.97654076    -0.44000
N531        N  0.39339275  0.98796194  0.05721097    -0.41400
N532        N  0.43093544  0.17516654  0.02050448    -0.42800
H533        H  0.40690105  0.12684585  0.06832588     0.13300
H534        H  0.41981053  0.03592414  0.00953987     0.09800
H535        H  0.48251057  0.11321291  0.00120508     0.10900
H536        H  0.40630564  0.09559305  0.93271703     0.16700
C537        C  0.63352662  0.86407082  0.99674740    -0.01500
C538        C  0.65458650  0.86656432  0.01673226     0.07100
C539        C  0.68722584  0.87706862  0.01341915    -0.07500
C540        C  0.69948230  0.88401990  0.99048081     0.04500
C541        C  0.67879540  0.88026815  0.97014878    -0.14700
C542        C  0.64568002  0.87084049  0.97377016    -0.08000
C543        C  0.64402344  0.85590068  0.04099853     0.05500
C544        C  0.63881716  0.82225127  0.04517591    -0.09200
C545        C  0.63201418  0.81043985  0.06823345     0.00500
C546        C  0.63036947  0.83266299  0.08780937     0.00300
C547        C  0.63468489  0.86654727  0.08334499    -0.12700
C548        C  0.64136833  0.87823458  0.06020432     0.00800
C549        C  0.62833423  0.77525949  0.07120021     0.40100
C550        C  0.64509133  0.91324832  0.05648204     0.36700
C551        C  0.59930820  0.85480787  0.99944312     0.36500
C552        C  0.73363991  0.89383146  0.98855758     0.37200
N553        N  0.62542657  0.74705128  0.07348999    -0.43600
N554        N  0.64793252  0.94132052  0.05342923    -0.44000
N555        N  0.76103705  0.90171890  0.98720067    -0.41400
N556        N  0.57184348  0.84753555  0.00161794    -0.42800
H557        H  0.62916831  0.86839025  0.95857538     0.13300
H558        H  0.70348484  0.87894343  0.02881707     0.09800
H559        H  0.64102867  0.80500753  0.03040778     0.10900
H560        H  0.63298267  0.88402816  0.09798292     0.16700
C561        C  0.66300926  0.03370060  0.87996663    -0.01500
C562        C  0.63197969  0.03825379  0.89093126     0.07100
C563        C  0.61949049  0.01375047  0.90616665    -0.07500
C564        C  0.63681631  0.98439897  0.90986383     0.04500
C565        C  0.66734815  0.97932659  0.89830935    -0.14700
C566        C  0.68066212  0.00441516  0.88393214    -0.08000
C567        C  0.61056867  0.06694479  0.88554329     0.05500
C568        C  0.59496811  0.06845536  0.86312557    -0.09200
C569        C  0.56895313  0.09052442  0.85909515     0.00500
C570        C  0.55846325  0.11167002  0.87767780     0.00300
C571        C  0.57613025  0.11224392  0.89931095    -0.12700
C572        C  0.60180878  0.08981157  0.90345816     0.00800
C573        C  0.55283346  0.09047810  0.83599792     0.40100
C574        C  0.61771172  0.08947629  0.92661423     0.36700
C575        C  0.67684587  0.05851394  0.86439550     0.36500
C576        C  0.62289444  0.95986805  0.92569317     0.37200
N577        N  0.53994817  0.09057367  0.81748111    -0.43600
N578        N  0.63046323  0.08909059  0.94517410    -0.44000
N579        N  0.61186488  0.94023331  0.93843494    -0.41400
N580        N  0.68788852  0.07844572  0.85191003    -0.42800
H581        H  0.70415097  0.00055836  0.87502453     0.13300
H582        H  0.59563715  0.01721855  0.91465335     0.09800
H583        H  0.60181265  0.05103324  0.84924945     0.10900
H584        H  0.56827807  0.12848644  0.91364022     0.16700
C585        C  0.66540584  0.55851207  0.48901108    -0.01500
C586        C  0.65378394  0.57417689  0.50995758     0.07100
C587        C  0.63063672  0.59972495  0.50775757    -0.07500
C588        C  0.61953036  0.61031012  0.48528900     0.04500
C589        C  0.63252442  0.59591080  0.46413990    -0.14700
C590        C  0.65488856  0.56951469  0.46643978    -0.08000
C591        C  0.66652057  0.56557084  0.53423717     0.05500
C592        C  0.70056846  0.56788809  0.53873916    -0.09200
C593        C  0.71345545  0.56209024  0.56166468     0.00500
C594        C  0.69196521  0.55423612  0.58080732     0.00300
C595        C  0.65792890  0.55184576  0.57626441    -0.12700
C596        C  0.64514089  0.55717265  0.55327285     0.00800
C597        C  0.74858267  0.56591866  0.56516759     0.40100
C598        C  0.61003246  0.55345382  0.54963353     0.36700
C599        C  0.68801153  0.53101187  0.49021829     0.36500
C600        C  0.59475752  0.63593801  0.48475490     0.37200
N601        N  0.77674066  0.56901974  0.56791734    -0.43600
N602        N  0.58188148  0.55056770  0.54674403    -0.44000
N603        N  0.57477595  0.65635223  0.48443809    -0.41400
N604        N  0.70612830  0.50897217  0.49119512    -0.42800
H605        H  0.66485022  0.55777242  0.45052231     0.13300
H606        H  0.62154361  0.61194477  0.52377190     0.09800
H607        H  0.71713194  0.57501866  0.52434435     0.10900
H608        H  0.64117945  0.54550877  0.59073838     0.16700
C609        C  0.44174480  0.31625994  0.51757992    -0.01500
C610        C  0.43185620  0.34890140  0.51254956     0.07100
C611        C  0.43086929  0.37189624  0.53128710    -0.07500
C612        C  0.43875252  0.36278124  0.55484732     0.04500
C613        C  0.44793495  0.32981645  0.56010785    -0.14700
C614        C  0.44996394  0.30712777  0.54108404    -0.08000
C615        C  0.41912606  0.35874736  0.48853089     0.05500
C616        C  0.38597803  0.36831455  0.48663742    -0.09200
C617        C  0.37190758  0.37614144  0.46443533     0.00500
C618        C  0.39116313  0.37418803  0.44323865     0.00300
C619        C  0.42474024  0.36552782  0.44532588    -0.12700
C620        C  0.43884475  0.35819551  0.46769966     0.00800
C621        C  0.33742804  0.38528280  0.46419595     0.40100
C622        C  0.47369682  0.35085643  0.46891794     0.36700
C623        C  0.44176320  0.29120455  0.49921199     0.36500
C624        C  0.43693002  0.38790466  0.57311381     0.37200
N625        N  0.30982207  0.39270025  0.46413628    -0.43600
N626        N  0.50164766  0.34503475  0.46990513    -0.44000
N627        N  0.43539532  0.40811227  0.58769991    -0.41400
N628        N  0.44177570  0.27117415  0.48445798    -0.42800
H629        H  0.45675322  0.28173658  0.54467027     0.13300
H630        H  0.42320345  0.39700715  0.52752771     0.09800
H631        H  0.37078227  0.36907427  0.50263956     0.10900
H632        H  0.44013501  0.36455740  0.42944793     0.16700
C633        C  0.49461631  0.26710704  0.73531185    -0.01500
C634        C  0.47956793  0.23708995  0.74201241     0.07100
C635        C  0.46106469  0.21964940  0.72493680    -0.07500
C636        C  0.45760854  0.23145678  0.70148202     0.04500
C637        C  0.47264316  0.26143483  0.69477243    -0.14700
C638        C  0.49083494  0.27915505  0.71187193    -0.08000
C639        C  0.48172610  0.22378245  0.76685486     0.05500
C640        C  0.46730694  0.24154854  0.78574034    -0.09200
C641        C  0.46616125  0.22843092  0.80899159     0.00500
C642        C  0.47957864  0.19690702  0.81361753     0.00300
C643        C  0.49438277  0.17934635  0.79482342    -0.12700
C644        C  0.49579741  0.19260192  0.77164102     0.00800
C645        C  0.44903967  0.24674543  0.82737857     0.40100
C646        C  0.51206516  0.17391347  0.75306877     0.36700
C647        C  0.51479160  0.28541021  0.75196334     0.36500
C648        C  0.43715863  0.21322020  0.68494038     0.37200
N649        N  0.43511628  0.26131514  0.84206395    -0.43600
N650        N  0.52516564  0.15900553  0.73817031    -0.44000
N651        N  0.42063130  0.19877353  0.67168606    -0.41400
N652        N  0.53106362  0.30000800  0.76529481    -0.42800
H653        H  0.50257131  0.30214472  0.70678064     0.13300
H654        H  0.44891727  0.19689349  0.73007119     0.09800
H655        H  0.45596661  0.26527300  0.78212691     0.10900
H656        H  0.50486318  0.15518713  0.79827863     0.16700
C657        C  0.60218096  0.34605306  0.65343532    -0.01500
C658        C  0.61032087  0.37253349  0.63816022     0.07100
C659        C  0.59046826  0.37915704  0.61813492    -0.07500
C660        C  0.56155527  0.36121165  0.61405063     0.04500
C661        C  0.55264450  0.33563853  0.62985927    -0.14700
C662        C  0.57357785  0.32754134  0.64902507    -0.08000
C663        C  0.63588530  0.39707525  0.64451992     0.05500
C664        C  0.66552267  0.39825155  0.63156521    -0.09200
C665        C  0.68713442  0.42511969  0.63394951     0.00500
C666        C  0.67854843  0.45176142  0.64913177     0.00300
C667        C  0.64989926  0.44912949  0.66326293    -0.12700
C668        C  0.62867614  0.42221744  0.66107317     0.00800
C669        C  0.71690930  0.42524147  0.61974483     0.40100
C670        C  0.59846031  0.42203300  0.67483683     0.36700
C671        C  0.62175657  0.33875542  0.67440158     0.36500
C672        C  0.54067886  0.37032458  0.59411761     0.37200
N673        N  0.74084884  0.42512095  0.60842186    -0.43600
N674        N  0.57424073  0.42185837  0.68583605    -0.44000
N675        N  0.52395192  0.37767004  0.57816000    -0.41400
N676        N  0.63736650  0.33299335  0.69127095    -0.42800
H677        H  0.56651255  0.30812476  0.66137344     0.13300
H678        H  0.59653129  0.39972377  0.60650593     0.09800
H679        H  0.67110333  0.37878814  0.61888043     0.10900
H680        H  0.64320222  0.46887308  0.67542580     0.16700
C681        C  0.82439121  0.69589956  0.91566213    -0.01500
C682        C  0.79601195  0.70375721  0.90209947     0.07100
C683        C  0.78195117  0.67956053  0.88723007    -0.07500
C684        C  0.79567260  0.64789713  0.88585778     0.04500
C685        C  0.82411099  0.64032952  0.89930061    -0.14700
C686        C  0.83832229  0.66444286  0.91399121    -0.08000
C687        C  0.78101080  0.73717959  0.90295380     0.05500
C688        C  0.80005337  0.76453504  0.89611518    -0.09200
C689        C  0.78686572  0.79644509  0.89673548     0.00500
C690        C  0.75388045  0.80130973  0.90415879     0.00300
C691        C  0.73476080  0.77390682  0.91073917    -0.12700
C692        C  0.74805515  0.74206891  0.91032963     0.00800
C693        C  0.80711628  0.82344601  0.88845802     0.40100
C694        C  0.72761178  0.71490051  0.91801292     0.36700
C695        C  0.83927061  0.71945021  0.93176667     0.36500
C696        C  0.78113657  0.62404369  0.86982001     0.37200
N697        N  0.82328332  0.84506546  0.88172507    -0.43600
N698        N  0.71125222  0.69308305  0.92412254    -0.44000
N699        N  0.76964081  0.60491023  0.85690895    -0.41400
N700        N  0.85119511  0.73832956  0.94466632    -0.42800
H701        H  0.86028698  0.65856804  0.92430003     0.13300
H702        H  0.76044495  0.68557080  0.87648554     0.09800
H703        H  0.82521619  0.76085810  0.89000585     0.10900
H704        H  0.70938318  0.77741653  0.91641788     0.16700
C705        C  0.89988774  0.56920384  0.00494938    -0.01500
C706        C  0.92574881  0.59178008  0.00878770     0.07100
C707        C  0.94272664  0.60468064  0.98901401    -0.07500
C708        C  0.93385080  0.59601150  0.96555306     0.04500
C709        C  0.90733620  0.57381051  0.96155059    -0.14700
C710        C  0.89097771  0.56040795  0.98157417    -0.08000
C711        C  0.93443861  0.60316393  0.03329473     0.05500
C712        C  0.94817056  0.58073881  0.04966649    -0.09200
C713        C  0.95490951  0.59016312  0.07333762     0.00500
C714        C  0.94774948  0.62262624  0.08096628     0.00300
C715        C  0.93496555  0.64527475  0.06430817    -0.12700
C716        C  0.92814245  0.63579490  0.04069996     0.00800
C717        C  0.97017759  0.56639506  0.08912663     0.40100
C718        C  0.91344328  0.65959888  0.02465619     0.36700
C719        C  0.88121699  0.55580363  0.02472560     0.36500
C720        C  0.95190755  0.61117035  0.94615333     0.37200
N721        N  0.98258077  0.54737677  0.10172059    -0.43600
N722        N  0.90161461  0.67863491  0.01179181    -0.44000
N723        N  0.96643671  0.62342797  0.93067496    -0.41400
N724        N  0.86627753  0.54515807  0.04061653    -0.42800
H725        H  0.87063770  0.54339883  0.97903956     0.13300
H726        H  0.96268848  0.62203516  0.99195490     0.09800
H727        H  0.95348265  0.55575256  0.04392332     0.10900
H728        H  0.92939067  0.67025803  0.06992357     0.16700
C729        C  0.79003792  0.50785679  0.80648746    -0.01500
C730        C  0.80169187  0.52349810  0.78563035     0.07100
C731        C  0.82893624  0.54464323  0.78712147    -0.07500
C732        C  0.84437253  0.55094320  0.80905370     0.04500
C733        C  0.83246755  0.53579608  0.83023547    -0.14700
C734        C  0.80542371  0.51404974  0.82851552    -0.08000
C735        C  0.78478425  0.52029602  0.76220990     0.05500
C736        C  0.75354013  0.53459758  0.75934663    -0.09200
C737        C  0.73904002  0.53731976  0.73664465     0.00500
C738        C  0.75624365  0.52584611  0.71613505     0.00300
C739        C  0.78671158  0.50966913  0.71942822    -0.12700
C740        C  0.80094095  0.50677513  0.74217744     0.00800
C741        C  0.70690633  0.55263944  0.73515981     0.40100
C742        C  0.83228865  0.49008802  0.74458354     0.36700
C743        C  0.76263105  0.48513524  0.80563851     0.36500
C744        C  0.87158198  0.57391260  0.80911810     0.37200
N745        N  0.68111075  0.56486589  0.73410259    -0.43600
N746        N  0.85733353  0.47659934  0.74658543    -0.44000
N747        N  0.89335335  0.59237501  0.80902800    -0.41400
N748        N  0.74072789  0.46685038  0.80496082    -0.42800
H749        H  0.79609525  0.50186708  0.84443348     0.13300
H750        H  0.83768750  0.55694994  0.77106361     0.09800
H751        H  0.74100003  0.54484020  0.77482543     0.10900
H752        H  0.79997938  0.49986969  0.70413648     0.16700
C753        C  0.34281995  0.24263723  0.88633484    -0.01500
C754        C  0.31446027  0.22269424  0.88429374     0.07100
C755        C  0.31808525  0.18847663  0.88231265    -0.07500
C756        C  0.34937508  0.17392928  0.88186639     0.04500
C757        C  0.37800505  0.19392168  0.88307254    -0.14700
C758        C  0.37424206  0.22818007  0.88576336    -0.08000
C759        C  0.28076226  0.23693038  0.88309589     0.05500
C760        C  0.27240243  0.25686197  0.86347453    -0.09200
C761        C  0.24035615  0.26924197  0.86081070     0.00500
C762        C  0.21592957  0.26156891  0.87803158     0.00300
C763        C  0.22431158  0.24145993  0.89761052    -0.12700
C764        C  0.25646354  0.22928261  0.90032254     0.00800
C765        C  0.23290748  0.28843891  0.83967145     0.40100
C766        C  0.26417873  0.20959118  0.92115709     0.36700
C767        C  0.34022579  0.27789870  0.88928510     0.36500
C768        C  0.35108415  0.13839257  0.88074814     0.37200
N769        N  0.22692734  0.30371762  0.82268859    -0.43600
N770        N  0.27044803  0.19384363  0.93785423    -0.44000
N771        N  0.35236203  0.10991296  0.87993600    -0.41400
N772        N  0.33811051  0.30615272  0.89169029    -0.42800
H773        H  0.39587873  0.24381728  0.88702481     0.13300
H774        H  0.29628320  0.17307386  0.88086150     0.09800
H775        H  0.29087261  0.26222683  0.84994652     0.10900
H776        H  0.20584657  0.23570902  0.91105152     0.16700
C777        C  0.14024910  0.32728349  0.98278356    -0.01500
C778        C  0.14657748  0.36092183  0.98699111     0.07100
C779        C  0.14697618  0.38290482  0.96758722    -0.07500
C780        C  0.14134948  0.37181093  0.94412001     0.04500
C781        C  0.13558883  0.33787941  0.93976622    -0.14700
C782        C  0.13471558  0.31614348  0.95943563    -0.08000
C783        C  0.15524677  0.37294979  0.01129997     0.05500
C784        C  0.18787430  0.38255647  0.01574642    -0.09200
C785        C  0.19845326  0.39024965  0.03896718     0.00500
C786        C  0.17598289  0.38831827  0.05841922     0.00300
C787        C  0.14285609  0.38015407  0.05361186    -0.12700
C788        C  0.13236892  0.37266716  0.03031717     0.00800
C789        C  0.23284433  0.39854224  0.04216693     0.40100
C790        C  0.09810262  0.36450815  0.02634211     0.36700
C791        C  0.14064916  0.30345805  0.00203922     0.36500
C792        C  0.14129940  0.39593773  0.92509183     0.37200
N793        N  0.26043454  0.40521155  0.04455286    -0.43600
N794        N  0.07064113  0.35797248  0.02314005    -0.44000
N795        N  0.14119435  0.41539817  0.90991344    -0.41400
N796        N  0.14093433  0.28439878  0.01748001    -0.42800
H797        H  0.13044870  0.29005028  0.95659580     0.13300
H798        H  0.15189292  0.40880677  0.97081116     0.09800
H799        H  0.20547515  0.38287690  0.00109166     0.10900
H800        H  0.12510777  0.37913734  0.06813882     0.16700
C801        C  0.92695239  0.41382002  0.87401313    -0.01500
C802        C  0.95872518  0.41108764  0.88417638     0.07100
C803        C  0.97105551  0.43689534  0.89829261    -0.07500
C804        C  0.95248097  0.46540290  0.90211638     0.04500
C805        C  0.92074423  0.46822233  0.89196942    -0.14700
C806        C  0.90798142  0.44217555  0.87826323    -0.08000
C807        C  0.98057217  0.38242884  0.87976674     0.05500
C808        C  0.99436857  0.37822359  0.85690810    -0.09200
C809        C  0.02071944  0.35637008  0.85340968     0.00500
C810        C  0.03337866  0.33834496  0.87299961     0.00300
C811        C  0.01752519  0.34026297  0.89527850    -0.12700
C812        C  0.99145987  0.36234343  0.89884388     0.00800
C813        C  0.03487336  0.35328401  0.82976269     0.40100
C814        C  0.97745645  0.36537763  0.92253160     0.36700
C815        C  0.91363189  0.38812336  0.85898652     0.36500
C816        C  0.96639064  0.49140607  0.91663010     0.37200
N817        N  0.04616032  0.35055902  0.81081584    -0.43600
N818        N  0.96626658  0.36798018  0.94151322    -0.44000
N819        N  0.97744079  0.51227082  0.92826322    -0.41400
N820        N  0.90305200  0.36758556  0.84682959    -0.42800
H821        H  0.88374997  0.44454203  0.87014224     0.13300
H822        H  0.99560310  0.43497030  0.90597491     0.09800
H823        H  0.98585950  0.39341966  0.84213881     0.10900
H824        H  0.02712712  0.32639385  0.91038733     0.16700
C825        C  0.24471871  0.22921558  0.61697086    -0.01500
C826        C  0.27335561  0.21321599  0.62540428     0.07100
C827        C  0.27068565  0.18175166  0.63545013    -0.07500
C828        C  0.24013360  0.16585326  0.63706341     0.04500
C829        C  0.21122981  0.18124897  0.62784786    -0.14700
C830        C  0.21408204  0.21310036  0.61799987    -0.08000
C831        C  0.30635624  0.22907244  0.62475118     0.05500
C832        C  0.31308362  0.25487685  0.64066071    -0.09200
C833        C  0.34455382  0.26910726  0.64178329     0.00500
C834        C  0.37010801  0.25755605  0.62657371     0.00300
C835        C  0.36313918  0.23164015  0.61061658    -0.12700
C836        C  0.33164105  0.21742394  0.60960847     0.00800
C837        C  0.35000650  0.29455569  0.65941962     0.40100
C838        C  0.32565566  0.19116886  0.59270256     0.36700
C839        C  0.24630051  0.26207869  0.60710703     0.36500
C840        C  0.23953074  0.13420377  0.64894496     0.37200
N841        N  0.35430974  0.31488718  0.67361557    -0.43600
N842        N  0.32080508  0.17016406  0.57913374    -0.44000
N843        N  0.23918116  0.10896779  0.65863450    -0.41400
N844        N  0.24764904  0.28850102  0.59933917    -0.42800
H845        H  0.19236351  0.22554602  0.61109569     0.13300
H846        H  0.29264132  0.16976028  0.64244102     0.09800
H847        H  0.29378701  0.26345759  0.65261288     0.10900
H848        H  0.38227833  0.22253835  0.59874689     0.16700
C849        C  0.14396899  0.05665067  0.53508143    -0.01500
C850        C  0.15369270  0.07870868  0.51687575     0.07100
C851        C  0.15613574  0.11241974  0.52203243    -0.07500
C852        C  0.14922268  0.12439818  0.54499215     0.04500
C853        C  0.13937980  0.10237924  0.56330525    -0.14700
C854        C  0.13714428  0.06855906  0.55813843    -0.08000
C855        C  0.16158326  0.06747506  0.49224782     0.05500
C856        C  0.14057896  0.07668183  0.47345395    -0.09200
C857        C  0.14843685  0.06925648  0.44961894     0.00500
C858        C  0.17833387  0.05260019  0.44418534     0.00300
C859        C  0.19875215  0.04249094  0.46328892    -0.12700
C860        C  0.19065741  0.04978236  0.48709854     0.00800
C861        C  0.12547303  0.07970466  0.43132127     0.40100
C862        C  0.21322397  0.04004684  0.50586620     0.36700
C863        C  0.14017542  0.02189037  0.53033511     0.36500
C864        C  0.15406518  0.15912390  0.54951834     0.37200
N865        N  0.10693343  0.08807478  0.41673960    -0.43600
N866        N  0.23124854  0.03217542  0.52092327    -0.44000
N867        N  0.15812150  0.18690925  0.55316624    -0.41400
N868        N  0.13713275  0.99403826  0.52646615    -0.42800
H869        H  0.12958461  0.05147078  0.57204483     0.13300
H870        H  0.16394524  0.12937493  0.50809964     0.09800
H871        H  0.11811935  0.09020384  0.47744859     0.10900
H872        H  0.22164866  0.02954977  0.45966229     0.16700
C873        C  0.08717475  0.21594823  0.72214216    -0.01500
C874        C  0.10935368  0.20764251  0.74060417     0.07100
C875        C  0.13224767  0.18224984  0.73702229    -0.07500
C876        C  0.13382708  0.16543732  0.71516078     0.04500
C877        C  0.11198854  0.17402711  0.69630423    -0.14700
C878        C  0.08864924  0.19921299  0.70021697    -0.08000
C879        C  0.10998509  0.22581154  0.76358699     0.05500
C880        C  0.08668365  0.21814944  0.78125825    -0.09200
C881        C  0.08783844  0.23339811  0.80375767     0.00500
C882        C  0.11272077  0.25691502  0.80878080     0.00300
C883        C  0.13538428  0.26522442  0.79068941    -0.12700
C884        C  0.13430018  0.24975595  0.76828960     0.00800
C885        C  0.06278887  0.22488076  0.82109541     0.40100
C886        C  0.15848089  0.25860866  0.75039962     0.36700
C887        C  0.06344899  0.24221970  0.72509524     0.36500
C888        C  0.15925266  0.14075625  0.71236558     0.37200
N889        N  0.04267600  0.21806927  0.83496690    -0.43600
N890        N  0.17781616  0.26562548  0.73601226    -0.44000
N891        N  0.17971544  0.12105679  0.71016020    -0.41400
N892        N  0.04449082  0.26332282  0.72749202    -0.42800
H893        H  0.07175774  0.20620434  0.68600449     0.13300
H894        H  0.14940286  0.17600696  0.75126407     0.09800
H895        H  0.06781029  0.19989559  0.77753114     0.10900
H896        H  0.15455534  0.28323000  0.79423736     0.16700
C897        C  0.83421564  0.73826871  0.63901680    -0.01500
C898        C  0.80127968  0.73015441  0.64467206     0.07100
C899        C  0.77927969  0.75546576  0.65104146    -0.07500
C900        C  0.78965937  0.78841882  0.65199978     0.04500
C901        C  0.82287576  0.79647652  0.64688986    -0.14700
C902        C  0.84478917  0.77109507  0.64040344    -0.08000
C903        C  0.78937806  0.69542161  0.64440603     0.05500
C904        C  0.80337042  0.67238286  0.66030522    -0.09200
C905        C  0.79181118  0.63979572  0.66121099     0.00500
C906        C  0.76568367  0.62998804  0.64613707     0.00300
C907        C  0.75183886  0.65287742  0.63018480    -0.12700
C908        C  0.76363134  0.68527646  0.62904489     0.00800
C909        C  0.80584279  0.61736627  0.67856454     0.40100
C910        C  0.74938197  0.70749282  0.61165219     0.36700
C911        C  0.85729294  0.71346317  0.63101396     0.36500
C912        C  0.76603603  0.81318047  0.65919677     0.37200
N913        N  0.81691525  0.59939110  0.69254569    -0.43600
N914        N  0.73804511  0.72528946  0.59766783    -0.44000
N915        N  0.74708689  0.83302157  0.66495444    -0.41400
N916        N  0.87567849  0.69355931  0.62447208    -0.42800
H917        H  0.87022566  0.77697775  0.63608003     0.13300
H918        H  0.75394979  0.74936601  0.65553252     0.09800
H919        H  0.82293067  0.68007714  0.67234273     0.10900
H920        H  0.73179041  0.64533743  0.61851079     0.16700
C921        C  0.88288268  0.86894839  0.54240996    -0.01500
C922        C  0.91689998  0.86629831  0.53733338     0.07100
C923        C  0.93984743  0.87171744  0.55576359    -0.07500
C924        C  0.92937999  0.87828373  0.57922964     0.04500
C925        C  0.89520741  0.87949561  0.58455610    -0.14700
C926        C  0.87239696  0.87558694  0.56577655    -0.08000
C927        C  0.92869009  0.85614209  0.51321075     0.05500
C928        C  0.92092438  0.87565655  0.49324175    -0.09200
C929        C  0.92811385  0.86497096  0.46994566     0.00500
C930        C  0.94410963  0.83423671  0.46630592     0.00300
C931        C  0.95319511  0.81554533  0.48654165    -0.12700
C932        C  0.94546020  0.82606120  0.50975052     0.00800
C933        C  0.91740179  0.88561375  0.45033153     0.40100
C934        C  0.95331043  0.80462723  0.52964193     0.36700
C935        C  0.85814940  0.86343171  0.52419174     0.36500
C936        C  0.95428732  0.88404887  0.59726976     0.37200
N937        N  0.90857013  0.90218806  0.43469564    -0.43600
N938        N  0.95951612  0.78749513  0.54561662    -0.44000
N939        N  0.97430619  0.88874178  0.61167647    -0.41400
N940        N  0.83834661  0.85908700  0.50957581    -0.42800
H941        H  0.84611870  0.87659378  0.56945293     0.13300
H942        H  0.96604356  0.87030480  0.55183608     0.09800
H943        H  0.90815833  0.89889996  0.49586566     0.10900
H944        H  0.96543328  0.79196735  0.48428560     0.16700
C945        C  0.78850138  0.91645147  0.80695645    -0.01500
C946        C  0.77384521  0.89927202  0.78778693     0.07100
C947        C  0.74468510  0.88152843  0.79179501    -0.07500
C948        C  0.73023381  0.88027672  0.81460373     0.04500
C949        C  0.74496985  0.89738213  0.83402412    -0.14700
C950        C  0.77403168  0.91549155  0.82973059    -0.08000
C951        C  0.78933694  0.89839819  0.76366623     0.05500
C952        C  0.81965956  0.88221174  0.76085655    -0.09200
C953        C  0.83512651  0.88040906  0.73844476     0.00500
C954        C  0.82018717  0.89528352  0.71811302     0.00300
C955        C  0.78964747  0.91144766  0.72111862    -0.12700
C956        C  0.77420909  0.91301146  0.74356311     0.00800
C957        C  0.86592368  0.86254677  0.73706252     0.40100
C958        C  0.74310835  0.93020952  0.74564167     0.36700
C959        C  0.81833583  0.93537908  0.80361275     0.36500
C960        C  0.70108520  0.86018826  0.81750533     0.37200
N961        N  0.89055683  0.84811889  0.73608860    -0.43600
N962        N  0.71817166  0.94396481  0.74734399    -0.44000
N963        N  0.67779873  0.84395881  0.81977147    -0.41400
N964        N  0.84227626  0.95047545  0.80087489    -0.42800
H965        H  0.78576029  0.92882660  0.84425208     0.13300
H966        H  0.73357659  0.86798576  0.77710521     0.09800
H967        H  0.83115641  0.87063909  0.77628918     0.10900
H968        H  0.77763525  0.92295305  0.70588671     0.16700
C969        C  0.92718485  0.01854952  0.62560261    -0.01500
C970        C  0.94604705  0.03016361  0.64512836     0.07100
C971        C  0.93898337  0.01832993  0.66824757    -0.07500
C972        C  0.91630700  0.99270962  0.67170505     0.04500
C973        C  0.89954619  0.97916598  0.65188776    -0.14700
C974        C  0.90387687  0.99343268  0.62917272    -0.08000
C975        C  0.97646745  0.05024222  0.64149677     0.05500
C976        C  0.97465022  0.08237770  0.63215017    -0.09200
C977        C  0.00340153  0.10131916  0.62861349     0.00500
C978        C  0.03475874  0.08806154  0.63462879     0.00300
C979        C  0.03616923  0.05566337  0.64364662    -0.12700
C980        C  0.00770722  0.03687158  0.64699254     0.00800
C981        C  0.99976868  0.13407399  0.61885956     0.40100
C982        C  0.01138154  0.00345931  0.65562316     0.36700
C983        C  0.93342662  0.02976763  0.60147379     0.36500
C984        C  0.91153042  0.97983647  0.69558608     0.37200
N985        N  0.99669610  0.16029658  0.61097568    -0.43600
N986        N  0.01428066  0.97672296  0.66256459    -0.44000
N987        N  0.90762182  0.96954421  0.71472363    -0.41400
N988        N  0.93843466  0.03871783  0.58211866    -0.42800
H989        H  0.89116224  0.98301318  0.61383213     0.13300
H990        H  0.95296400  0.02755261  0.68340940     0.09800
H991        H  0.95070770  0.09270468  0.62769808     0.10900
H992        H  0.05976426  0.04461503  0.64814855     0.16700
loop_ 
_geom_bond_atom_site_label_1 
_geom_bond_atom_site_label_2 
_geom_bond_distance 
_geom_bond_site_symmetry_2 
_ccdc_geom_bond_type 
O1            V9   1.909       .  S
O1           C11   1.266       .  A
O2            V9   1.907       .  S
O2           C12   1.267       .  A
O3            V9   1.901       .  S
O3           C13   1.266       .  A
O4            V9   1.896       .  S
O4           C14   1.265       .  A
O5           V10   1.901       .  S
O5           C14   1.265       .  A
O6           V10   1.900       .  S
O6           C13   1.265       .  A
O7           V10   1.897       .  S
O7           C12   1.264       .  A
O8           V10   1.895       .  S
O8           C11   1.263       .  A
V9           V10   2.083       .  T
C11         C973   1.477       .  S
C12         C901   1.485       .  S
C13         C954   1.493       .  S
C14         C925   1.485       .  S
O15          V23   1.918       .  S
O15          C25   1.269       .  A
O16          V23   1.914       .  S
O16          C26   1.269       .  A
O17          V23   1.896       .  S
O17          C27   1.264       .  A
O18          V23   1.897       .  S
O18          C28   1.264       .  A
O19          V24   1.900       .  S
O19          C28   1.265       .  A
O20          V24   1.902       .  S
O20          C27   1.265       .  A
O21          V24   1.887       .  S
O21          C26   1.261       .  A
O22          V24   1.886       .  S
O22          C25   1.263       .  A
V23          V24   2.083       .  T
C25         C978   1.496       .  S
C26         C829   1.493       .  S
C27         C853   1.480       .  S
C28         C877   1.486       .  S
O29          V37   1.902       .  S
O29          C39   1.264       .  A
O30          V37   1.903       .  S
O30          C40   1.266       .  A
O31          V37   1.892       .  S
O31          C41   1.264       .  A
O32          V37   1.897       .  S
O32          C42   1.264       .  A
O33          V38   1.901       .  S
O33          C42   1.265       .  A
O34          V38   1.907       .  S
O34          C41   1.266       .  A
O35          V38   1.892       .  S
O35          C40   1.262       .  A
O36          V38   1.891       .  S
O36          C39   1.262       .  A
V37          V38   2.086       .  T
C39         C810   1.471       .  S
C40         C762   1.478       .  S
C41         C781   1.489       .  S
C42         C882   1.483       .  S
O43          V51   1.905       .  S
O43          C53   1.265       .  A
O44          V51   1.905       .  S
O44          C54   1.265       .  A
O45          V51   1.894       .  S
O45          C55   1.264       .  A
O46          V51   1.900       .  S
O46          C56   1.266       .  A
O47          V52   1.900       .  S
O47          C56   1.265       .  A
O48          V52   1.901       .  S
O48          C55   1.266       .  A
O49          V52   1.890       .  S
O49          C54   1.261       .  A
O50          V52   1.888       .  S
O50          C53   1.261       .  A
V51          V52   2.087       .  T
C53         C805   1.469       .  S
C54         C685   1.467       .  S
C55         C733   1.488       .  S
C56         C709   1.492       .  S
O57          V65   1.907       .  S
O57          C67   1.265       .  A
O58          V65   1.904       .  S
O58          C68   1.266       .  A
O59          V65   1.905       .  S
O59          C69   1.267       .  A
O60          V65   1.901       .  S
O60          C70   1.265       .  A
O61          V66   1.904       .  S
O61          C70   1.265       .  A
O62          V66   1.901       .  S
O62          C69   1.265       .  A
O63          V66   1.896       .  S
O63          C68   1.264       .  A
O64          V66   1.891       .  S
O64          C67   1.262       .  A
V65          V66   2.084       .  T
C67         C661   1.469       .  S
C68         C834   1.488       .  S
C69         C613   1.493       .  S
C70         C637   1.478       .  S
O71          V79   1.909       .  S
O71          C81   1.266       .  A
O72          V79   1.909       .  S
O72          C82   1.266       .  A
O73          V79   1.897       .  S
O73          C83   1.265       .  A
O74          V79   1.900       .  S
O74          C84   1.265       .  A
O75          V80   1.899       .  S
O75          C84   1.265       .  A
O76          V80   1.899       .  S
O76          C83   1.265       .  A
O77          V80   1.894       .  S
O77          C82   1.262       .  A
O78          V80   1.888       .  S
O78          C81   1.263       .  A
V79          V80   2.083       .  T
C81         C666   1.487       .  S
C82         C906   1.474       .  S
C83         C738   1.489       .  S
C84         C594   1.483       .  S
O85          V93   1.905       .  S
O85          C95   1.264       .  A
O86          V93   1.902       .  S
O86          C96   1.265       .  A
O87          V93   1.898       .  S
O87          C97   1.265       .  A
O88          V93   1.904       .  S
O88          C98   1.266       .  A
O89          V94   1.898       .  S
O89          C98   1.265       .  A
O90          V94   1.901       .  S
O90          C97   1.265       .  A
O91          V94   1.893       .  S
O91          C96   1.262       .  A
O92          V94   1.891       .  S
O92          C95   1.262       .  A
V93          V94   2.086       .  T
C95         C565   1.471       .  S
C96         C690   1.477       .  S
C97         C949   1.491       .  S
C98         C541   1.492       .  S
O99         V107   1.905       .  S
O99         C109   1.265       .  A
O100        V107   1.904       .  S
O100        C110   1.266       .  A
O101        V107   1.899       .  S
O101        C111   1.264       .  A
O102        V107   1.903       .  S
O102        C112   1.265       .  A
O103        V108   1.901       .  S
O103        C112   1.264       .  A
O104        V108   1.904       .  S
O104        C111   1.265       .  A
O105        V108   1.890       .  S
O105        C110   1.263       .  A
O106        V108   1.890       .  S
O106        C109   1.262       .  A
V107        V108   2.087       .  T
C109        C570   1.475       .  S
C110        C757   1.483       .  S
C111        C522   1.481       .  S
C112        C642   1.479       .  S
O113        V121   1.910       .  S
O113        C123   1.267       .  A
O114        V121   1.905       .  S
O114        C124   1.266       .  A
O115        V121   1.895       .  S
O115        C125   1.263       .  A
O116        V121   1.902       .  S
O116        C126   1.264       .  A
O117        V122   1.902       .  S
O117        C126   1.265       .  A
O118        V122   1.908       .  S
O118        C125   1.267       .  A
O119        V122   1.895       .  S
O119        C124   1.264       .  A
O120        V122   1.892       .  S
O120        C123   1.263       .  A
V121        V122   2.086       .  T
C123        C498   1.480       .  S
C124        C445   1.485       .  S
C125        C618   1.493       .  S
C126        C469   1.479       .  S
O127        V135   1.912       .  S
O127        C137   1.267       .  A
O128        V135   1.908       .  S
O128        C138   1.267       .  A
O129        V135   1.893       .  S
O129        C139   1.264       .  A
O130        V135   1.893       .  S
O130        C140   1.263       .  A
O131        V136   1.905       .  S
O131        C140   1.267       .  A
O132        V136   1.903       .  S
O132        C139   1.266       .  A
O133        V136   1.891       .  S
O133        C138   1.262       .  A
O134        V136   1.892       .  S
O134        C137   1.264       .  A
V135        V136   2.084       .  T
C137        C493   1.486       .  S
C138        C402   1.483       .  S
C139        C421   1.489       .  S
C140        C589   1.491       .  S
O141        V149   1.899   1_455  S
O141        C151   1.263       .  A
O142        V149   1.896       .  S
O142        C152   1.264       .  A
O143        V149   1.897       .  S
O143        C153   1.264       .  A
O144        V149   1.899       .  S
O144        C154   1.265       .  A
O145        V150   1.903       .  S
O145        C154   1.266       .  A
O146        V150   1.902       .  S
O146        C153   1.266       .  A
O147        V150   1.901       .  S
O147        C152   1.264       .  A
O148        V150   1.896       .  S
O148        C151   1.264   1_655  A
V149        V150   2.083       .  T
C151        C378   1.471       .  S
C152        C325   1.474       .  S
C153        C349   1.491       .  S
C154        C714   1.482       .  S
O155        V163   1.908       .  S
O155        C165   1.265       .  A
O156        V163   1.901       .  S
O156        C166   1.265       .  A
O157        V163   1.897       .  S
O157        C167   1.264       .  A
O158        V163   1.898       .  S
O158        C168   1.264       .  A
O159        V164   1.904       .  S
O159        C168   1.265       .  A
O160        V164   1.903       .  S
O160        C167   1.266       .  A
O161        V164   1.889       .  S
O161        C166   1.262       .  A
O162        V164   1.883       .  S
O162        C165   1.262       .  A
V163        V164   2.085       .  T
C165        C373   1.474       .  S
C166        C301   1.474       .  S
C167        C786   1.489       .  S
C168        C474   1.479       .  S
O169        V177   1.909       .  S
O169        C179   1.266       .  A
O170        V177   1.909       .  S
O170        C180   1.267       .  A
O171        V177   1.900       .  S
O171        C181   1.264       .  A
O172        V177   1.899       .  S
O172        C182   1.265       .  A
O173        V178   1.900       .  S
O173        C182   1.265       .  A
O174        V178   1.901       .  S
O174        C181   1.264       .  A
O175        V178   1.881       .  S
O175        C180   1.261       .  A
O176        V178   1.884       .  S
O176        C179   1.262       .  A
V177        V178   2.084       .  T
C179        C277   1.479   1_545  S
C180        C306   1.486       .  S
C181        C517   1.477       .  S
C182        C253   1.492       .  S
O183        V191   1.904       .  S
O183        C193   1.265       .  A
O184        V191   1.903       .  S
O184        C194   1.265       .  A
O185        V191   1.892       .  S
O185        C195   1.264       .  A
O186        V191   1.896       .  S
O186        C196   1.264       .  A
O187        V192   1.904       .  S
O187        C196   1.267       .  A
O188        V192   1.904       .  S
O188        C195   1.266       .  A
O189        V192   1.894       .  S
O189        C194   1.263       .  A
O190        V192   1.892       .  S
O190        C193   1.264       .  A
V191        V192   2.083       .  T
C193        C282   1.482       .  S
C194        C330   1.477       .  S
C195        C426   1.487       .  S
C196        C546   1.489       .  S
O197        V205   1.906   1_455  S
O197        C207   1.264       .  A
O198        V205   1.904       .  S
O198        C208   1.266       .  A
O199        V205   1.902       .  S
O199        C209   1.265       .  A
O200        V205   1.899       .  S
O200        C210   1.266       .  A
O201        V206   1.900       .  S
O201        C210   1.264       .  A
O202        V206   1.896       .  S
O202        C209   1.265       .  A
O203        V206   1.895       .  S
O203        C208   1.264       .  A
O204        V206   1.893       .  S
O204        C207   1.263   1_655  A
V205        V206   2.085       .  T
C207        C229   1.471       .  S
C208        C397   1.485       .  S
C209        C354   1.487       .  S
C210        C930   1.492       .  S
O211        V219   1.914   1_565  S
O211        C221   1.267       .  A
O212        V219   1.912       .  S
O212        C222   1.268       .  A
O213        V219   1.898       .  S
O213        C223   1.265       .  A
O214        V219   1.899       .  S
O214        C224   1.264       .  A
O215        V220   1.900       .  S
O215        C224   1.266       .  A
O216        V220   1.900       .  S
O216        C223   1.265       .  A
O217        V220   1.886       .  S
O217        C222   1.262       .  A
O218        V220   1.884       .  S
O218        C221   1.263   1_545  A
V219        V220   2.083       .  T
C221        C234   1.491       .  S
C222        C450   1.490       .  S
C223        C858   1.491       .  S
C224        C258   1.489       .  S
C225        C226   1.414       .  A
C225        C230   1.403       .  A
C225        C239   1.444       .  S
C226        C231   1.488       .  S
C226        C227   1.404       .  A
C227        C228   1.399       .  A
C227        H246   1.085       .  S
C228        C229   1.409       .  A
C228        C240   1.445       .  S
C229        C230   1.401       .  A
C230        H245   1.085       .  S
C231        C232   1.405       .  A
C231        C236   1.410       .  A
C232        C233   1.407       .  A
C232        H247   1.085       .  S
C233        C234   1.417       .  A
C233        C237   1.443       .  S
C234        C235   1.407       .  A
C235        C236   1.393       .  A
C235        H248   1.085       .  S
C236        C238   1.446       .  S
C237        N241   1.157       .  T
C238        N242   1.157       .  T
C239        N244   1.157       .  T
C240        N243   1.157       .  T
C249        C250   1.407       .  A
C249        C254   1.401       .  A
C249        C263   1.444       .  S
C250        C255   1.483       .  S
C250        C251   1.400       .  A
C251        C252   1.401       .  A
C251        H270   1.085       .  S
C252        C253   1.419       .  A
C252        C264   1.444       .  S
C253        C254   1.410       .  A
C254        H269   1.084       .  S
C255        C256   1.401       .  A
C255        C260   1.408       .  A
C256        C257   1.401       .  A
C256        H271   1.085       .  S
C257        C258   1.418       .  A
C257        C261   1.444   1_545  S
C258        C259   1.408       .  A
C259        C260   1.400       .  A
C259        H272   1.084       .  S
C260        C262   1.444       .  S
C261        N265   1.157       .  T
C262        N266   1.157       .  T
C263        N268   1.157   1_545  T
C264        N267   1.157       .  T
C273        C274   1.409       .  A
C273        C278   1.405       .  A
C273        C287   1.443       .  S
C274        C279   1.481       .  S
C274        C275   1.400       .  A
C275        C276   1.393       .  A
C275        H294   1.085       .  S
C276        C277   1.415       .  A
C276        C288   1.445   1_565  S
C277        C278   1.407       .  A
C278        H293   1.084       .  S
C279        C280   1.402       .  A
C279        C284   1.410       .  A
C280        C281   1.403       .  A
C280        H295   1.085       .  S
C281        C282   1.416       .  A
C281        C285   1.443       .  S
C282        C283   1.404       .  A
C283        C284   1.396       .  A
C283        H296   1.085       .  S
C284        C286   1.445       .  S
C285        N289   1.157       .  T
C286        N290   1.157       .  T
C287        N292   1.157       .  T
C288        N291   1.157       .  T
C297        C298   1.407       .  A
C297        C302   1.396       .  A
C297        C311   1.444       .  S
C298        C303   1.473       .  S
C298        C299   1.400       .  A
C299        C300   1.399       .  A
C299        H318   1.085       .  S
C300        C301   1.413       .  A
C300        C312   1.443       .  S
C301        C302   1.405       .  A
C302        H317   1.085       .  S
C303        C304   1.401       .  A
C303        C308   1.403       .  A
C304        C305   1.403       .  A
C304        H319   1.085       .  S
C305        C306   1.417       .  A
C305        C309   1.443       .  S
C306        C307   1.409       .  A
C307        C308   1.393       .  A
C307        H320   1.084       .  S
C308        C310   1.445       .  S
C309        N313   1.157       .  T
C310        N314   1.157       .  T
C311        N316   1.157       .  T
C312        N315   1.157       .  T
C321        C322   1.413       .  A
C321        C326   1.401       .  A
C321        C335   1.444       .  S
C322        C327   1.488       .  S
C322        C323   1.404       .  A
C323        C324   1.399       .  A
C323        H342   1.085       .  S
C324        C325   1.411       .  A
C324        C336   1.445       .  S
C325        C326   1.402       .  A
C326        H341   1.085       .  S
C327        C328   1.405       .  A
C327        C332   1.412       .  A
C328        C329   1.401       .  A
C328        H343   1.085       .  S
C329        C330   1.412       .  A
C329        C333   1.444       .  S
C330        C331   1.403       .  A
C331        C332   1.399       .  A
C331        H344   1.085       .  S
C332        C334   1.444       .  S
C333        N337   1.157       .  T
C334        N338   1.157       .  T
C335        N340   1.157       .  T
C336        N339   1.157       .  T
C345        C346   1.408       .  A
C345        C350   1.401       .  A
C345        C359   1.444       .  S
C346        C351   1.483       .  S
C346        C347   1.400       .  A
C347        C348   1.400       .  A
C347        H366   1.085       .  S
C348        C349   1.419       .  A
C348        C360   1.444       .  S
C349        C350   1.409       .  A
C350        H365   1.084       .  S
C351        C352   1.401       .  A
C351        C356   1.408       .  A
C352        C353   1.402       .  A
C352        H367   1.085   1_655  S
C353        C354   1.418       .  A
C353        C357   1.444   1_655  S
C354        C355   1.407       .  A
C355        C356   1.399       .  A
C355        H368   1.084       .  S
C356        C358   1.445       .  S
C357        N361   1.157       .  T
C358        N362   1.157       .  T
C359        N364   1.157       .  T
C360        N363   1.157   1_655  T
C369        C370   1.410       .  A
C369        C374   1.405       .  A
C369        C383   1.443       .  S
C370        C375   1.479       .  S
C370        C371   1.399       .  A
C371        C372   1.391       .  A
C371        H390   1.085       .  S
C372        C373   1.412       .  A
C372        C384   1.446       .  S
C373        C374   1.406       .  A
C374        H389   1.084       .  S
C375        C376   1.403       .  A
C375        C380   1.411       .  A
C376        C377   1.399       .  A
C376        H391   1.085       .  S
C377        C378   1.411       .  A
C377        C381   1.445       .  S
C378        C379   1.402       .  A
C379        C380   1.400       .  A
C379        H392   1.085       .  S
C380        C382   1.444       .  S
C381        N385   1.157       .  T
C382        N386   1.157       .  T
C383        N388   1.157       .  T
C384        N387   1.157       .  T
C393        C394   1.407       .  A
C393        C398   1.398       .  A
C393        C407   1.444       .  S
C394        C399   1.481       .  S
C394        C395   1.402       .  A
C395        C396   1.403       .  A
C395        H414   1.085       .  S
C396        C397   1.416       .  A
C396        C408   1.444       .  S
C397        C398   1.407       .  A
C398        H413   1.085       .  S
C399        C400   1.400       .  A
C399        C404   1.409       .  A
C400        C401   1.398       .  A
C400        H415   1.085       .  S
C401        C402   1.417       .  A
C401        C405   1.445       .  S
C402        C403   1.406       .  A
C403        C404   1.403       .  A
C403        H416   1.084       .  S
C404        C406   1.443       .  S
C405        N409   1.157       .  T
C406        N410   1.157       .  T
C407        N412   1.157       .  T
C408        N411   1.157       .  T
C417        C418   1.405       .  A
C417        C422   1.399       .  A
C417        C431   1.444       .  S
C418        C423   1.479       .  S
C418        C419   1.400       .  A
C419        C420   1.400       .  A
C419        H438   1.085       .  S
C420        C421   1.418       .  A
C420        C432   1.444       .  S
C421        C422   1.410       .  A
C422        H437   1.084       .  S
C423        C424   1.401       .  A
C423        C428   1.405       .  A
C424        C425   1.403       .  A
C424        H439   1.085       .  S
C425        C426   1.418       .  A
C425        C429   1.444       .  S
C426        C427   1.408       .  A
C427        C428   1.397       .  A
C427        H440   1.084       .  S
C428        C430   1.444       .  S
C429        N433   1.157       .  T
C430        N434   1.157       .  T
C431        N436   1.157       .  T
C432        N435   1.157       .  T
C441        C442   1.410       .  A
C441        C446   1.399       .  A
C441        C455   1.444       .  S
C442        C447   1.487       .  S
C442        C443   1.404       .  A
C443        C444   1.403       .  A
C443        H462   1.085       .  S
C444        C445   1.415       .  A
C444        C456   1.444       .  S
C445        C446   1.406       .  A
C446        H461   1.085       .  S
C447        C448   1.404       .  A
C447        C452   1.408       .  A
C448        C449   1.403       .  A
C448        H463   1.085       .  S
C449        C450   1.416       .  A
C449        C453   1.443       .  S
C450        C451   1.409       .  A
C451        C452   1.398       .  A
C451        H464   1.084       .  S
C452        C454   1.444       .  S
C453        N457   1.157       .  T
C454        N458   1.157       .  T
C455        N460   1.157       .  T
C456        N459   1.157       .  T
C465        C466   1.414       .  A
C465        C470   1.403       .  A
C465        C479   1.444       .  S
C466        C471   1.495       .  S
C466        C467   1.407       .  A
C467        C468   1.401       .  A
C467        H486   1.084       .  S
C468        C469   1.409       .  A
C468        C480   1.444       .  S
C469        C470   1.404       .  A
C470        H485   1.085       .  S
C471        C472   1.407       .  A
C471        C476   1.414       .  A
C472        C473   1.404       .  A
C472        H487   1.084       .  S
C473        C474   1.411       .  A
C473        C477   1.444       .  S
C474        C475   1.402       .  A
C475        C476   1.399       .  A
C475        H488   1.085       .  S
C476        C478   1.445       .  S
C477        N481   1.157       .  T
C478        N482   1.157       .  T
C479        N484   1.157       .  T
C480        N483   1.157       .  T
C489        C490   1.409       .  A
C489        C494   1.396       .  A
C489        C503   1.445       .  S
C490        C495   1.485       .  S
C490        C491   1.403       .  A
C491        C492   1.408       .  A
C491        H510   1.084       .  S
C492        C493   1.416       .  A
C492        C504   1.443       .  S
C493        C494   1.405       .  A
C494        H509   1.085       .  S
C495        C496   1.403       .  A
C495        C500   1.410       .  A
C496        C497   1.405       .  A
C496        H511   1.085       .  S
C497        C498   1.414       .  A
C497        C501   1.444       .  S
C498        C499   1.404       .  A
C499        C500   1.400       .  A
C499        H512   1.085       .  S
C500        C502   1.444       .  S
C501        N505   1.157       .  T
C502        N506   1.157       .  T
C503        N508   1.157       .  T
C504        N507   1.157       .  T
C513        C514   1.413       .  A
C513        C518   1.400       .  A
C513        C527   1.444       .  S
C514        C519   1.489   1_554  S
C514        C515   1.405       .  A
C515        C516   1.403       .  A
C515        H534   1.085       .  S
C516        C517   1.412       .  A
C516        C528   1.444       .  S
C517        C518   1.402       .  A
C518        H533   1.085       .  S
C519        C520   1.404       .  A
C519        C524   1.412       .  A
C520        C521   1.401       .  A
C520        H535   1.085   1_556  S
C521        C522   1.413       .  A
C521        C525   1.444       .  S
C522        C523   1.405       .  A
C523        C524   1.402       .  A
C523        H536   1.085       .  S
C524        C526   1.444       .  S
C525        N529   1.157       .  T
C526        N530   1.157       .  T
C527        N532   1.157       .  T
C528        N531   1.157   1_545  T
C537        C538   1.407   1_556  A
C537        C542   1.401       .  A
C537        C551   1.444       .  S
C538        C543   1.484       .  S
C538        C539   1.401       .  A
C539        C540   1.402   1_554  A
C539        H558   1.085       .  S
C540        C541   1.418       .  A
C540        C552   1.444       .  S
C541        C542   1.409       .  A
C542        H557   1.084       .  S
C543        C544   1.401       .  A
C543        C548   1.408       .  A
C544        C545   1.400       .  A
C544        H559   1.085       .  S
C545        C546   1.419       .  A
C545        C549   1.444       .  S
C546        C547   1.408       .  A
C547        C548   1.402       .  A
C547        H560   1.084       .  S
C548        C550   1.443       .  S
C549        N553   1.157       .  T
C550        N554   1.157       .  T
C551        N556   1.157   1_556  T
C552        N555   1.157       .  T
C561        C562   1.410       .  A
C561        C566   1.403       .  A
C561        C575   1.443       .  S
C562        C567   1.481       .  S
C562        C563   1.402       .  A
C563        C564   1.397   1_545  A
C563        H582   1.085       .  S
C564        C565   1.410       .  A
C564        C576   1.445       .  S
C565        C566   1.404   1_565  A
C566        H581   1.085       .  S
C567        C568   1.402       .  A
C567        C572   1.410       .  A
C568        C569   1.400       .  A
C568        H583   1.085       .  S
C569        C570   1.412       .  A
C569        C573   1.445       .  S
C570        C571   1.403       .  A
C571        C572   1.400       .  A
C571        H584   1.084       .  S
C572        C574   1.444       .  S
C573        N577   1.157       .  T
C574        N578   1.157       .  T
C575        N580   1.157       .  T
C576        N579   1.157       .  T
C585        C586   1.412       .  A
C585        C590   1.402       .  A
C585        C599   1.444       .  S
C586        C591   1.491       .  S
C586        C587   1.402       .  A
C587        C588   1.399       .  A
C587        H606   1.087       .  S
C588        C589   1.419       .  A
C588        C600   1.444       .  S
C589        C590   1.408       .  A
C590        H605   1.086       .  S
C591        C592   1.405       .  A
C591        C596   1.412       .  A
C592        C593   1.401       .  A
C592        H607   1.086       .  S
C593        C594   1.414       .  A
C593        C597   1.444       .  S
C594        C595   1.405       .  A
C595        C596   1.400       .  A
C595        H608   1.086       .  S
C596        C598   1.444       .  S
C597        N601   1.157       .  T
C598        N602   1.157       .  T
C599        N604   1.157       .  T
C600        N603   1.157       .  T
C609        C610   1.411       .  A
C609        C614   1.402       .  A
C609        C623   1.444       .  S
C610        C615   1.490       .  S
C610        C611   1.402       .  A
C611        C612   1.402       .  A
C611        H630   1.085       .  S
C612        C613   1.418       .  A
C612        C624   1.444       .  S
C613        C614   1.408       .  A
C614        H629   1.084       .  S
C615        C616   1.401       .  A
C615        C620   1.411       .  A
C616        C617   1.400       .  A
C616        H631   1.085       .  S
C617        C618   1.419       .  A
C617        C621   1.444       .  S
C618        C619   1.409       .  A
C619        C620   1.404       .  A
C619        H632   1.084       .  S
C620        C622   1.444       .  S
C621        N625   1.157       .  T
C622        N626   1.157       .  T
C623        N628   1.157       .  T
C624        N627   1.157       .  T
C633        C634   1.412       .  A
C633        C638   1.404       .  A
C633        C647   1.444       .  S
C634        C639   1.490       .  S
C634        C635   1.404       .  A
C635        C636   1.400       .  A
C635        H654   1.085       .  S
C636        C637   1.411       .  A
C636        C648   1.445       .  S
C637        C638   1.404       .  A
C638        H653   1.085       .  S
C639        C640   1.404       .  A
C639        C644   1.412       .  A
C640        C641   1.403       .  A
C640        H655   1.085       .  S
C641        C642   1.413       .  A
C641        C645   1.444       .  S
C642        C643   1.403       .  A
C643        C644   1.402       .  A
C643        H656   1.085       .  S
C644        C646   1.444       .  S
C645        N649   1.157       .  T
C646        N650   1.157       .  T
C647        N652   1.157       .  T
C648        N651   1.157       .  T
C657        C658   1.410       .  A
C657        C662   1.403       .  A
C657        C671   1.443       .  S
C658        C663   1.480       .  S
C658        C659   1.402       .  A
C659        C660   1.398       .  A
C659        H678   1.085       .  S
C660        C661   1.409       .  A
C660        C672   1.444       .  S
C661        C662   1.403       .  A
C662        H677   1.085       .  S
C663        C664   1.402       .  A
C663        C668   1.407       .  A
C664        C665   1.405       .  A
C664        H679   1.085       .  S
C665        C666   1.417       .  A
C665        C669   1.443       .  S
C666        C667   1.407       .  A
C667        C668   1.395       .  A
C667        H680   1.085       .  S
C668        C670   1.445       .  S
C669        N673   1.157       .  T
C670        N674   1.157       .  T
C671        N676   1.157       .  T
C672        N675   1.157       .  T
C681        C682   1.412       .  A
C681        C686   1.398       .  A
C681        C695   1.444       .  S
C682        C687   1.486       .  S
C682        C683   1.406       .  A
C683        C684   1.401       .  A
C683        H702   1.085       .  S
C684        C685   1.408       .  A
C684        C696   1.444       .  S
C685        C686   1.401       .  A
C686        H701   1.085       .  S
C687        C688   1.405       .  A
C687        C692   1.411       .  A
C688        C689   1.400       .  A
C688        H703   1.085       .  S
C689        C690   1.412       .  A
C689        C693   1.445       .  S
C690        C691   1.404       .  A
C691        C692   1.399       .  A
C691        H704   1.085       .  S
C692        C694   1.444       .  S
C693        N697   1.157       .  T
C694        N698   1.157       .  T
C695        N700   1.157       .  T
C696        N699   1.157       .  T
C705        C706   1.408       .  A
C705        C710   1.400   1_554  A
C705        C719   1.444       .  S
C706        C711   1.486       .  S
C706        C707   1.402   1_554  A
C707        C708   1.403       .  A
C707        H726   1.085       .  S
C708        C709   1.420       .  A
C708        C720   1.444       .  S
C709        C710   1.408       .  A
C710        H725   1.084       .  S
C711        C712   1.403       .  A
C711        C716   1.410       .  A
C712        C713   1.402       .  A
C712        H727   1.085       .  S
C713        C714   1.414       .  A
C713        C717   1.444       .  S
C714        C715   1.405       .  A
C715        C716   1.400       .  A
C715        H728   1.085       .  S
C716        C718   1.444       .  S
C717        N721   1.157       .  T
C718        N722   1.157       .  T
C719        N724   1.157       .  T
C720        N723   1.157       .  T
C729        C730   1.407       .  A
C729        C734   1.401       .  A
C729        C743   1.444       .  S
C730        C735   1.481       .  S
C730        C731   1.401       .  A
C731        C732   1.398       .  A
C731        H750   1.085       .  S
C732        C733   1.417       .  A
C732        C744   1.444       .  S
C733        C734   1.410       .  A
C734        H749   1.084       .  S
C735        C736   1.400       .  A
C735        C740   1.407       .  A
C736        C737   1.400       .  A
C736        H751   1.085       .  S
C737        C738   1.419       .  A
C737        C741   1.444       .  S
C738        C739   1.409       .  A
C739        C740   1.399       .  A
C739        H752   1.084       .  S
C740        C742   1.444       .  S
C741        N745   1.157       .  T
C742        N746   1.157       .  T
C743        N748   1.157       .  T
C744        N747   1.157       .  T
C753        C754   1.410       .  A
C753        C758   1.401       .  A
C753        C767   1.444       .  S
C754        C759   1.483       .  S
C754        C755   1.400       .  A
C755        C756   1.397       .  A
C755        H774   1.085       .  S
C756        C757   1.417       .  A
C756        C768   1.445       .  S
C757        C758   1.406       .  A
C758        H773   1.084       .  S
C759        C760   1.402       .  A
C759        C764   1.410       .  A
C760        C761   1.399       .  A
C760        H775   1.085       .  S
C761        C762   1.414       .  A
C761        C765   1.445       .  S
C762        C763   1.404       .  A
C763        C764   1.400       .  A
C763        H776   1.085       .  S
C764        C766   1.444       .  S
C765        N769   1.157       .  T
C766        N770   1.157       .  T
C767        N772   1.157       .  T
C768        N771   1.157       .  T
C777        C778   1.409       .  A
C777        C782   1.397       .  A
C777        C791   1.445   1_556  S
C778        C783   1.484   1_556  S
C778        C779   1.402       .  A
C779        C780   1.404       .  A
C779        H798   1.085       .  S
C780        C781   1.418       .  A
C780        C792   1.444       .  S
C781        C782   1.408       .  A
C782        H797   1.084       .  S
C783        C784   1.400       .  A
C783        C788   1.409       .  A
C784        C785   1.400       .  A
C784        H799   1.085       .  S
C785        C786   1.419       .  A
C785        C789   1.444       .  S
C786        C787   1.408       .  A
C787        C788   1.401       .  A
C787        H800   1.084       .  S
C788        C790   1.444       .  S
C789        N793   1.157       .  T
C790        N794   1.157       .  T
C791        N796   1.157       .  T
C792        N795   1.157       .  T
C801        C802   1.410       .  A
C801        C806   1.403       .  A
C801        C815   1.443       .  S
C802        C807   1.481       .  S
C802        C803   1.403       .  A
C803        C804   1.396       .  A
C803        H822   1.085       .  S
C804        C805   1.409       .  A
C804        C816   1.445       .  S
C805        C806   1.404       .  A
C806        H821   1.085       .  S
C807        C808   1.403       .  A
C807        C812   1.410       .  A
C808        C809   1.401   1_655  A
C808        H823   1.085       .  S
C809        C810   1.411       .  A
C809        C813   1.444       .  S
C810        C811   1.402       .  A
C811        C812   1.398   1_455  A
C811        H824   1.085       .  S
C812        C814   1.444       .  S
C813        N817   1.157       .  T
C814        N818   1.157       .  T
C815        N820   1.157       .  T
C816        N819   1.157       .  T
C825        C826   1.409       .  A
C825        C830   1.404       .  A
C825        C839   1.443       .  S
C826        C831   1.484       .  S
C826        C827   1.398       .  A
C827        C828   1.399       .  A
C827        H846   1.085       .  S
C828        C829   1.422       .  A
C828        C840   1.445       .  S
C829        C830   1.409       .  A
C830        H845   1.084       .  S
C831        C832   1.400       .  A
C831        C836   1.409       .  A
C832        C833   1.401       .  A
C832        H847   1.085       .  S
C833        C834   1.418       .  A
C833        C837   1.444       .  S
C834        C835   1.407       .  A
C835        C836   1.401       .  A
C835        H848   1.084       .  S
C836        C838   1.444       .  S
C837        N841   1.157       .  T
C838        N842   1.157       .  T
C839        N844   1.157       .  T
C840        N843   1.157       .  T
C849        C850   1.410       .  A
C849        C854   1.402       .  A
C849        C863   1.443       .  S
C850        C855   1.483       .  S
C850        C851   1.401       .  A
C851        C852   1.399       .  A
C851        H870   1.085       .  S
C852        C853   1.414       .  A
C852        C864   1.445       .  S
C853        C854   1.405       .  A
C854        H869   1.085       .  S
C855        C856   1.400       .  A
C855        C860   1.408       .  A
C856        C857   1.401       .  A
C856        H871   1.085       .  S
C857        C858   1.419       .  A
C857        C861   1.444       .  S
C858        C859   1.409       .  A
C859        C860   1.400       .  A
C859        H872   1.084       .  S
C860        C862   1.444       .  S
C861        N865   1.157       .  T
C862        N866   1.157       .  T
C863        N868   1.157   1_545  T
C864        N867   1.157       .  T
C873        C874   1.407       .  A
C873        C878   1.401       .  A
C873        C887   1.444       .  S
C874        C879   1.480       .  S
C874        C875   1.400       .  A
C875        C876   1.400       .  A
C875        H894   1.085       .  S
C876        C877   1.417       .  A
C876        C888   1.444       .  S
C877        C878   1.408       .  A
C878        H893   1.084       .  S
C879        C880   1.400       .  A
C879        C884   1.408       .  A
C880        C881   1.401       .  A
C880        H895   1.085       .  S
C881        C882   1.416       .  A
C881        C885   1.444       .  S
C882        C883   1.406       .  A
C883        C884   1.400       .  A
C883        H896   1.085       .  S
C884        C886   1.444       .  S
C885        N889   1.157       .  T
C886        N890   1.157       .  T
C887        N892   1.157       .  T
C888        N891   1.157       .  T
C897        C898   1.410       .  A
C897        C902   1.401       .  A
C897        C911   1.444       .  S
C898        C903   1.490       .  S
C898        C899   1.405       .  A
C899        C900   1.403       .  A
C899        H918   1.085       .  S
C900        C901   1.414       .  A
C900        C912   1.444       .  S
C901        C902   1.406       .  A
C902        H917   1.085       .  S
C903        C904   1.407       .  A
C903        C908   1.411       .  A
C904        C905   1.404       .  A
C904        H919   1.085       .  S
C905        C906   1.409       .  A
C905        C909   1.444       .  S
C906        C907   1.402       .  A
C907        C908   1.400       .  A
C907        H920   1.085       .  S
C908        C910   1.444       .  S
C909        N913   1.157       .  T
C910        N914   1.157       .  T
C911        N916   1.157       .  T
C912        N915   1.157       .  T
C921        C922   1.410       .  A
C921        C926   1.398       .  A
C921        C935   1.444       .  S
C922        C927   1.487       .  S
C922        C923   1.403       .  A
C923        C924   1.402       .  A
C923        H942   1.085       .  S
C924        C925   1.416       .  A
C924        C936   1.444       .  S
C925        C926   1.406       .  A
C926        H941   1.085       .  S
C927        C928   1.402       .  A
C927        C932   1.409       .  A
C928        C929   1.401       .  A
C928        H943   1.085       .  S
C929        C930   1.419       .  A
C929        C933   1.444       .  S
C930        C931   1.408       .  A
C931        C932   1.399       .  A
C931        H944   1.084       .  S
C932        C934   1.445       .  S
C933        N937   1.157       .  T
C934        N938   1.157       .  T
C935        N940   1.157       .  T
C936        N939   1.157       .  T
C945        C946   1.408       .  A
C945        C950   1.400       .  A
C945        C959   1.444       .  S
C946        C951   1.486       .  S
C946        C947   1.401       .  A
C947        C948   1.402       .  A
C947        H966   1.085       .  S
C948        C949   1.419       .  A
C948        C960   1.444       .  S
C949        C950   1.408       .  A
C950        H965   1.084       .  S
C951        C952   1.401       .  A
C951        C956   1.408       .  A
C952        C953   1.401       .  A
C952        H967   1.085       .  S
C953        C954   1.419       .  A
C953        C957   1.444       .  S
C954        C955   1.409       .  A
C955        C956   1.402       .  A
C955        H968   1.084       .  S
C956        C958   1.444       .  S
C957        N961   1.157       .  T
C958        N962   1.157       .  T
C959        N964   1.157       .  T
C960        N963   1.157       .  T
C969        C970   1.412       .  A
C969        C974   1.404   1_545  A
C969        C983   1.443       .  S
C970        C975   1.491       .  S
C970        C971   1.406       .  A
C971        C972   1.401   1_545  A
C971        H990   1.085       .  S
C972        C973   1.409       .  A
C972        C984   1.444       .  S
C973        C974   1.404       .  A
C974        H989   1.085       .  S
C975        C976   1.406       .  A
C975        C980   1.409   1_655  A
C976        C977   1.409   1_655  A
C976        H991   1.084       .  S
C977        C978   1.419       .  A
C977        C981   1.443   1_455  S
C978        C979   1.408       .  A
C979        C980   1.395       .  A
C979        H992   1.084       .  S
C980        C982   1.446       .  S
C981        N985   1.157       .  T
C982        N986   1.157   1_545  T
C983        N988   1.157       .  T
C984        N987   1.157       .  T
