geometry optimzed in LAMMPS
_audit_creation_date              2020-12-01 
_audit_creation_method            'lammps2cif' 
_symmetry_space_group_name_H-M    'P1' 
_symmetry_Int_Tables_number       1 
_symmetry_cell_setting            triclinic 
loop_ 
_symmetry_equiv_pos_as_xyz 
  x,y,z 
_cell_length_a                    38.6558499 
_cell_length_b                    36.99100092620824 
_cell_length_c                    50.871802598119224 
_cell_angle_alpha                 89.58951430443736 
_cell_angle_beta                  90.0075788018604 
_cell_angle_gamma                 89.97025083368634 
loop_ 
_atom_site_label 
_atom_site_type_symbol 
_atom_site_fract_x 
_atom_site_fract_y 
_atom_site_fract_z 
_atom_site_charge 
C1          C  0.43814185  0.31602671  0.35848901     0.03800
C2          C  0.45726993  0.34210659  0.34434720    -0.12300
C3          C  0.44640737  0.35355071  0.31922149     0.01300
C4          C  0.41768779  0.33682649  0.30761618    -0.10800
C5          C  0.39897027  0.31032436  0.32126171     0.03800
C6          C  0.40823145  0.30153561  0.34707938    -0.10300
H7          H  0.48051946  0.35339860  0.35287306     0.09400
H8          H  0.40999180  0.34403757  0.28781387     0.07000
H9          H  0.39276820  0.28240716  0.35818155     0.06800
C10         C  0.40379781  0.34911277  0.13938886     0.03800
C11         C  0.42835334  0.37156211  0.15175286    -0.12300
C12         C  0.43911501  0.36430487  0.17763933     0.01300
C13         C  0.42345906  0.33610359  0.19175299    -0.10800
C14         C  0.39965209  0.31319172  0.17950353     0.03800
C15         C  0.39261980  0.31778938  0.15268985    -0.10300
H16         H  0.43710075  0.39612159  0.14212968     0.09400
H17         H  0.42896662  0.33271598  0.21252664     0.07000
H18         H  0.37454935  0.29973050  0.14317743     0.06800
C19         C  0.17470548  0.35384014  0.35899508     0.03800
C20         C  0.14295187  0.36334807  0.34732201    -0.12300
C21         C  0.13740114  0.35733641  0.32049776     0.01300
C22         C  0.16046480  0.33523781  0.30655705    -0.10800
C23         C  0.18952289  0.32055490  0.31915724     0.03800
C24         C  0.19751878  0.33155901  0.34473849    -0.10300
H25         H  0.12444295  0.37931207  0.35820014     0.09400
H26         H  0.15618365  0.33012098  0.28585213     0.07000
H27         H  0.22250973  0.32427728  0.35278450     0.06800
C28         C  0.43396533  0.11433278  0.13979114     0.03800
C29         C  0.45611413  0.09101365  0.15381343    -0.12300
C30         C  0.44732579  0.07912221  0.17928259     0.01300
C31         C  0.41760602  0.09316677  0.19146786    -0.10800
C32         C  0.39622827  0.11751032  0.17791519     0.03800
C33         C  0.40328265  0.12576941  0.15161939    -0.10300
H34         H  0.48001256  0.08220870  0.14482496     0.09400
H35         H  0.41157903  0.08588781  0.21162415     0.07000
H36         H  0.38567678  0.14279774  0.14053437     0.06800
C37         C  0.46453319  0.38303635  0.30509230     0.43200
N38         N  0.99890337  0.42714250  0.29689090     0.02100
C39         C  0.00017772  0.03417325  0.18398181    -0.05800
H40         H  0.00906831  0.40013456  0.16428334     0.07500
C41         C  0.12643932  0.40026334  0.22039749    -0.06200
Co42       Co  0.47792273  0.46805082  0.24831085     0.74200
N43         N  0.00344013  0.42924142  0.20076643    -0.25400
Co44       Co  0.04348764  0.46719928  0.20182413     0.74100
C45         C  0.11584771  0.38243528  0.19621458     0.43300
N46         N  0.10017971  0.42597013  0.28130989     0.01700
N47         N  0.08135829  0.42672902  0.20403197     0.01800
N48         N  0.45812015  0.03387442  0.21491947    -0.46200
H49         H  0.43162987  0.39596557  0.26829813     0.07500
N50         N  0.47905471  0.42916858  0.21895200     0.02100
N51         N  0.08287596  0.50592632  0.20364471     0.01800
C52         C  0.11846857  0.04885882  0.19465172     0.43400
N53         N  0.07584764  0.42608305  0.29945336    -0.24800
C54         C  0.45495699  0.03359037  0.28145235    -0.05700
N55         N  0.99266400  0.40078380  0.31402744    -0.45900
N56         N  0.09071595  0.03056133  0.18550986    -0.46100
C57         C  0.46455335  0.04913569  0.30665606     0.43200
N58         N  0.48103725  0.50793385  0.21923003     0.02000
N59         N  0.07633476  0.50511503  0.29984184    -0.24800
N60         N  0.47631780  0.42809071  0.27744171    -0.25300
N61         N  0.10110085  0.50539544  0.28200815     0.01700
H62         H  0.06593233  0.03832263  0.33361227     0.07600
H63         H  0.15012890  0.03755832  0.23211130     0.07600
N64         N  0.00578616  0.50739982  0.20135934    -0.25400
N65         N  0.10382452  0.42716073  0.22354950    -0.25000
N66         N  0.99944720  0.50590131  0.29755952     0.02100
C67         C  0.46245038  0.38921398  0.19145151     0.43400
C68         C  0.08187692  0.39859067  0.31625776    -0.06200
N69         N  0.10471969  0.50598050  0.22357082    -0.25000
H70         H  0.14824785  0.39494985  0.23314317     0.07600
N71         N  0.45407868  0.40570021  0.21410003    -0.46200
H72         H  0.06691132  0.39244243  0.33368713     0.07600
C73         C  0.11323084  0.05000797  0.30716304     0.43300
C74         C  0.45356743  0.40123025  0.28087712    -0.05700
Co75       Co  0.03762855  0.46602836  0.29912295     0.73800
N76         N  0.12279262  0.39951657  0.28464374    -0.45900
C77         C  0.46855155  0.05180226  0.19312416     0.43600
N78         N  0.99195598  0.03011639  0.31583523    -0.45900
Co79       Co  0.10310240  0.46623856  0.25268614     0.73900
C80         C  0.12790646  0.03236154  0.21978119    -0.06200
C81         C  0.99499884  0.40497562  0.18229395    -0.05800
N82         N  0.47763419  0.50690121  0.27762599    -0.25300
N83         N  0.08784621  0.40058001  0.18694491    -0.46100
H84         H  0.01565162  0.03956389  0.16669205     0.07600
C85         C  0.08179844  0.03224985  0.31670679    -0.06200
Cl86       Cl  0.04050552  0.46686790  0.25045957    -0.49200
C87         C  0.11283571  0.38053538  0.30604666     0.43300
H88         H  0.43281529  0.03943911  0.26912873     0.07500
N89         N  0.12381871  0.03160775  0.28577492    -0.45900
C90         C  0.14655557  0.31903645  0.14217866     0.03800
C91         C  0.17852107  0.30812112  0.15295195    -0.12300
C92         C  0.18735164  0.31678855  0.17883275     0.01300
C93         C  0.16636343  0.34067573  0.19286951    -0.10800
C94         C  0.13575684  0.35448269  0.18189969     0.03800
C95         C  0.12506220  0.34193942  0.15722211    -0.10300
H96         H  0.19632597  0.29206784  0.14149120     0.09400
H97         H  0.17372937  0.34808568  0.21257622     0.07000
H98         H  0.10001469  0.35016181  0.14978887     0.06800
C99         C  0.40453374  0.07577314  0.36144106     0.03800
C100        C  0.38376759  0.10144225  0.34820254    -0.12300
C101        C  0.39162665  0.11210742  0.32237536     0.01300
C102        C  0.41994583  0.09666793  0.30961037    -0.10800
C103        C  0.44116571  0.07157577  0.32254449     0.03800
C104        C  0.43460365  0.06282674  0.34895850    -0.10300
H105        H  0.35992350  0.11074143  0.35709393     0.09400
H106        H  0.42450287  0.10291350  0.28903769     0.07000
H107        H  0.45054453  0.04277139  0.35878075     0.06800
C108        C  0.14680710  0.11532480  0.35869345     0.03800
C109        C  0.17787565  0.12598239  0.34647242    -0.12300
C110        C  0.18467211  0.11714754  0.32026327     0.01300
C111        C  0.16338355  0.09223353  0.30748982    -0.10800
C112        C  0.13358826  0.07892304  0.31984165     0.03800
C113        C  0.12411202  0.09279084  0.34444616    -0.10300
H114        H  0.19681236  0.14167583  0.35707542     0.09400
H115        H  0.16959536  0.08364644  0.28774468     0.07000
H116        H  0.09927137  0.08548891  0.35261865     0.06800
C117        C  0.17860628  0.07545885  0.13955786     0.03800
C118        C  0.19851710  0.10214695  0.15217337    -0.12300
C119        C  0.18985775  0.11403526  0.17742260     0.01300
C120        C  0.16239461  0.09759823  0.19087944    -0.10800
C121        C  0.14190149  0.07145592  0.17857252     0.03800
C122        C  0.14862281  0.06244135  0.15230302    -0.10300
H123        H  0.22234270  0.11167697  0.14333437     0.09400
H124        H  0.15769378  0.10430042  0.21128808     0.07000
H125        H  0.13276414  0.04220930  0.14283824     0.06800
C126        C  0.37665722  0.29035422  0.19563499     0.43200
N127        N  0.33195293  0.25746983  0.20331951     0.02100
C128        C  0.22862801  0.26282253  0.31474794    -0.05800
H129        H  0.35752655  0.24158527  0.33431750     0.07500
C130        C  0.35257375  0.12420783  0.28163864    -0.06200
Co131      Co  0.29372084  0.28181581  0.25111793     0.74200
N132        N  0.32848953  0.25252064  0.29900436    -0.25400
Co133      Co  0.29037797  0.21315802  0.29780790     0.74100
C134        C  0.36725101  0.13415757  0.30692571     0.43300
N135        N  0.32850689  0.15156996  0.21845789     0.01700
N136        N  0.32733799  0.17188941  0.29688820     0.01800
N137        N  0.23112881  0.30627575  0.28325868    -0.46200
H138        H  0.36649761  0.32505566  0.23220703     0.07500
N139        N  0.32999919  0.27849214  0.28115704     0.02100
N140        N  0.25253691  0.17331274  0.29579735     0.01800
C141        C  0.21318792  0.13503261  0.30607465     0.43400
N142        N  0.32842360  0.17762845  0.20064404    -0.24800
C143        C  0.23366504  0.31019690  0.21643766    -0.05700
N144        N  0.35732699  0.26287414  0.18621481    -0.45900
N145        N  0.22911997  0.16559168  0.31396965    -0.46100
C146        C  0.21754404  0.29976274  0.19170974     0.43200
N147        N  0.25461918  0.28074801  0.27937224     0.02000
N148        N  0.25399659  0.17919021  0.20009950    -0.24800
N149        N  0.33267497  0.28067532  0.22288894    -0.25300
N150        N  0.25314636  0.15366202  0.21840265     0.01700
H151        H  0.22559127  0.18644089  0.16382564     0.07600
H152        H  0.22437748  0.10059873  0.26948258     0.07600
N153        N  0.25366908  0.25491621  0.29745299    -0.25400
N154        N  0.32785910  0.14880377  0.27719047    -0.25000
N155        N  0.25658349  0.26090103  0.20187377     0.02100
C156        C  0.37028972  0.29124308  0.30835471     0.43400
C157        C  0.35262686  0.17083349  0.18269531    -0.06200
N158        N  0.25307751  0.14942636  0.27666738    -0.25000
H159        H  0.35785783  0.10085380  0.26960787     0.07600
N160        N  0.35469660  0.30229076  0.28598661    -0.46200
H161        H  0.35782340  0.18725261  0.16547540     0.07600
C162        C  0.21306941  0.13861488  0.19159225     0.43300
C163        C  0.36011590  0.30233994  0.21984817    -0.05700
Co164      Co  0.29255743  0.21894452  0.20092638     0.73800
N165        N  0.35207169  0.12640367  0.21362261    -0.45900
C166        C  0.21340586  0.29652585  0.30500468     0.43600
N167        N  0.23302451  0.26890151  0.18380021    -0.45900
Co168      Co  0.29071936  0.15034636  0.24762115     0.73900
C169        C  0.22882139  0.12437682  0.28125186    -0.06200
C170        C  0.35305823  0.25814999  0.31704749    -0.05800
N171        N  0.25750114  0.28471407  0.22103079    -0.25300
N172        N  0.35010426  0.16362376  0.31550808    -0.46100
H173        H  0.22273183  0.24764101  0.33241741     0.07600
C174        C  0.22981806  0.17164595  0.18195142    -0.06200
Cl175      Cl  0.29171111  0.21605368  0.24937777    -0.49200
C176        C  0.36811538  0.13685964  0.19124637     0.43300
H177        H  0.22916393  0.33364497  0.22853869     0.07500
N178        N  0.22920414  0.12893179  0.21400111    -0.45900
N179        N  0.27977817  0.47060602  0.53693808    -0.35900
N180        N  0.32361758  0.50463166  0.49731306    -0.56500
N181        N  0.28496751  0.46581395  0.45747797    -0.35900
N182        N  0.23835187  0.43538396  0.49752274    -0.56500
C183        C  0.29625427  0.49623922  0.55092308     0.27700
C184        C  0.25196702  0.46016466  0.55115272     0.27700
C185        C  0.30391933  0.48886783  0.44236986     0.27700
C186        C  0.25999822  0.45139785  0.44206404     0.27700
C187        C  0.34233919  0.01185482  0.51899189     0.36300
C188        C  0.34475932  0.01026965  0.47664122     0.36300
C189        C  0.22461479  0.41922986  0.51908268     0.36300
C190        C  0.22646135  0.41713947  0.47649207     0.36300
C191        C  0.27858063  0.50237656  0.57420924    -0.21200
C192        C  0.25061735  0.47947404  0.57437438    -0.21200
C193        C  0.29074892  0.48915388  0.41705936    -0.21200
C194        C  0.26389200  0.46493492  0.41665676    -0.21200
C195        C  0.37550471  0.02249612  0.51216942    -0.22200
C196        C  0.37705129  0.02150647  0.48519416    -0.22200
C197        C  0.20337333  0.39097142  0.51176257    -0.22200
C198        C  0.20384821  0.39019121  0.48477929    -0.22200
C199        C  0.32888688  0.01101753  0.54464778    -0.17600
C200        C  0.23022641  0.43074647  0.54515429    -0.17600
C201        C  0.23489439  0.42512970  0.44992378    -0.17600
C202        C  0.33436971  0.50759317  0.45017232    -0.17600
H203        H  0.28575020  0.52062459  0.58983179     0.15300
H204        H  0.23194041  0.47655908  0.59010054     0.15300
H205        H  0.30016772  0.50435282  0.40027654     0.15300
H206        H  0.24936474  0.45810527  0.39925405     0.15300
H207        H  0.39619157  0.03052189  0.52522165     0.13600
H208        H  0.39924368  0.02851937  0.47323624     0.13600
H209        H  0.18856242  0.37319155  0.52443349     0.13600
H210        H  0.18923727  0.37165969  0.47275155     0.13600
H211        H  0.28898670  0.45838314  0.52002900     0.26900
H212        H  0.28997293  0.45859042  0.47679173     0.26900
N213        N  0.03667670  0.21822622  0.03802905    -0.35900
N214        N  0.50013786  0.17770557  0.99689064    -0.56500
N215        N  0.04250332  0.21403135  0.95841774    -0.35900
N216        N  0.08191702  0.25110571  0.99971537    -0.56500
C217        C  0.01912062  0.19317614  0.05218366     0.27700
C218        C  0.06131575  0.23219368  0.05398933     0.27700
C219        C  0.02746169  0.18807822  0.94356687     0.27700
C220        C  0.07044320  0.22637608  0.94511170     0.27700
C221        C  0.47913441  0.17094308  0.01748742     0.36300
C222        C  0.48214337  0.16896338  0.97510532     0.36300
C223        C  0.09152437  0.27053926  0.02090456     0.36300
C224        C  0.09375902  0.26910793  0.97837735     0.36300
C225        C  0.03270133  0.19117560  0.07737057    -0.21200
C226        C  0.05861806  0.21624471  0.07870867    -0.21200
C227        C  0.04616029  0.18380791  0.92056462    -0.21200
C228        C  0.07329724  0.20795550  0.92153926    -0.21200
C229        C  0.44771708  0.15745998  0.00886159    -0.22200
C230        C  0.44960986  0.15622935  0.98189148    -0.22200
C231        C  0.11050285  0.30046824  0.01300282    -0.22200
C232        C  0.11110015  0.30009438  0.98603791    -0.22200
C233        C  0.48907757  0.17446980  0.04397119    -0.17600
C234        C  0.08487049  0.26024826  0.04722853    -0.17600
C235        C  0.09084852  0.25668875  0.95225982    -0.17600
C236        C  0.49577883  0.17038995  0.94940342    -0.17600
H237        H  0.02412638  0.17418854  0.09350692     0.15300
H238        H  0.07318014  0.22211332  0.09628504     0.15300
H239        H  0.04041265  0.16571601  0.90451791     0.15300
H240        H  0.09244972  0.21221721  0.90630989     0.15300
H241        H  0.42593083  0.14904022  0.02077735     0.13600
H242        H  0.42953559  0.14671424  0.96882624     0.13600
H243        H  0.12268568  0.32058134  0.02522442     0.13600
H244        H  0.12360658  0.31999372  0.97358963     0.13600
H245        H  0.03054983  0.22689619  0.01920133     0.26900
H246        H  0.03262095  0.22506541  0.97550824     0.26900
N247        N  0.04466473  0.21656009  0.46315585    -0.35900
N248        N  0.00433268  0.25499529  0.50268600    -0.56500
N249        N  0.04324416  0.21642566  0.54281347    -0.35900
N250        N  0.08623645  0.18137840  0.50314638    -0.56500
C251        C  0.02843622  0.24204636  0.44849662     0.27700
C252        C  0.07049472  0.20279800  0.44831718     0.27700
C253        C  0.02660552  0.24166427  0.55725233     0.27700
C254        C  0.06981898  0.20358906  0.55745944     0.27700
C255        C  0.48506788  0.26237888  0.48119050     0.36300
C256        C  0.48413991  0.26193473  0.52368636     0.36300
C257        C  0.09735444  0.16264708  0.48206954     0.36300
C258        C  0.09638844  0.16252561  0.52460869     0.36300
C259        C  0.04421584  0.24476307  0.42412729    -0.21200
C260        C  0.07008581  0.21955763  0.42375521    -0.21200
C261        C  0.04289834  0.24500126  0.58140045    -0.21200
C262        C  0.07017707  0.22098500  0.58152772    -0.21200
C263        C  0.45257709  0.27450706  0.48848092    -0.22200
C264        C  0.45196603  0.27420102  0.51551689    -0.22200
C265        C  0.11558177  0.13229433  0.49019310    -0.22200
C266        C  0.11428467  0.13176571  0.51713689    -0.22200
C267        C  0.49731987  0.25989490  0.45518355    -0.17600
C268        C  0.09266005  0.17380740  0.45570189    -0.17600
C269        C  0.09126540  0.17387816  0.55078305    -0.17600
C270        C  0.49539125  0.25933517  0.55002637    -0.17600
H271        H  0.03688163  0.26204214  0.40779171     0.15300
H272        H  0.08590734  0.21403468  0.40677787     0.15300
H273        H  0.03541604  0.26234447  0.59747691     0.15300
H274        H  0.08773784  0.21613571  0.59774966     0.15300
H275        H  0.43164595  0.28285707  0.47567359     0.13600
H276        H  0.43045077  0.28231553  0.52774289     0.13600
H277        H  0.12848641  0.11250918  0.47809138     0.13600
H278        H  0.12576473  0.11132827  0.52971212     0.13600
H279        H  0.03671287  0.20703758  0.48142762     0.26900
H280        H  0.03507617  0.20619078  0.52489367     0.26900
N281        N  0.27332976  0.44383716  0.96298195    -0.35900
N282        N  0.31643563  0.40893156  0.00213125    -0.56500
N283        N  0.28378437  0.45472631  0.04142846    -0.35900
N284        N  0.24066745  0.48974704  0.00188615    -0.56500
C285        C  0.28705440  0.41672319  0.94862441     0.27700
C286        C  0.24753228  0.45853153  0.94848151     0.27700
C287        C  0.31062016  0.44084833  0.05543153     0.27700
C288        C  0.27053862  0.48253764  0.05548294     0.27700
C289        C  0.32829015  0.39071149  0.98110247     0.36300
C290        C  0.33326103  0.39567974  0.02328745     0.36300
C291        C  0.22424238  0.00311788  0.98049727     0.36300
C292        C  0.22831049  0.00764397  0.02291257     0.36300
C293        C  0.26966623  0.41397878  0.92491050    -0.21200
C294        C  0.24459942  0.44020652  0.92487036    -0.21200
C295        C  0.31437775  0.46011224  0.07855656    -0.21200
C296        C  0.28915993  0.48625959  0.07860768    -0.21200
C297        C  0.35290721  0.36564635  0.98884408    -0.22200
C298        C  0.35519810  0.36791903  0.01571774    -0.22200
C299        C  0.20156340  0.03018434  0.98792492    -0.22200
C300        C  0.20308184  0.03199989  0.01486742    -0.22200
C301        C  0.31670096  0.39619412  0.95513254    -0.17600
C302        C  0.22857705  0.99012940  0.95460435    -0.17600
C303        C  0.24112448  0.00386698  0.04889328    -0.17600
C304        C  0.33094533  0.41011450  0.04889180    -0.17600
H305        H  0.27490024  0.39530180  0.90911232     0.15300
H306        H  0.22673720  0.44578858  0.90895799     0.15300
H307        H  0.33328474  0.45565049  0.09394028     0.15300
H308        H  0.28495775  0.50582499  0.09400532     0.15300
H309        H  0.36724534  0.34714859  0.97659858     0.13600
H310        H  0.37200361  0.35169643  0.02804634     0.13600
H311        H  0.18496865  0.04642515  0.97545901     0.13600
H312        H  0.18797698  0.05007931  0.02690757     0.13600
H313        H  0.28304995  0.45387204  0.98045442     0.26900
H314        H  0.27365972  0.44430613  0.02419528     0.26900
C315        C  0.38403512  0.35733412  0.85747876     0.03800
C316        C  0.36411513  0.33474358  0.84140148    -0.12300
C317        C  0.37559363  0.32495439  0.81635378     0.01300
C318        C  0.40553870  0.34104897  0.80606095    -0.10800
C319        C  0.42470400  0.36554844  0.82109714     0.03800
C320        C  0.41485527  0.37209805  0.84721488    -0.10300
H321        H  0.33979361  0.32412384  0.84866141     0.09400
H322        H  0.41377076  0.33491692  0.78625025     0.07000
H323        H  0.43104267  0.38890734  0.85944184     0.06800
C324        C  0.42453848  0.10556425  0.85988531     0.03800
C325        C  0.39394435  0.11902483  0.84812537    -0.12300
C326        C  0.38527958  0.10947360  0.82224809     0.01300
C327        C  0.40509398  0.08341049  0.80924538    -0.10800
C328        C  0.43387769  0.06766572  0.82137157     0.03800
C329        C  0.44384775  0.07917682  0.84641707    -0.10300
H330        H  0.37885228  0.13948641  0.85804264     0.09400
H331        H  0.39900794  0.07651502  0.78907844     0.07000
H332        H  0.46811066  0.06954850  0.85452613     0.06800
C333        C  0.17973647  0.05861055  0.85798249     0.03800
C334        C  0.19560113  0.08973338  0.84743726    -0.12300
C335        C  0.18779243  0.10168369  0.82193453     0.01300
C336        C  0.16117352  0.08477950  0.80791513    -0.10800
C337        C  0.14377184  0.05488604  0.81855990     0.03800
C338        C  0.15415084  0.04107037  0.84311293    -0.10300
H339        H  0.21479563  0.10401457  0.85885740     0.09400
H340        H  0.15442750  0.09460973  0.78849351     0.07000
H341        H  0.14237348  0.01653631  0.85062585     0.06800
C342        C  0.15011245  0.32858161  0.86054131     0.03800
C343        C  0.13510035  0.35874436  0.84797697    -0.12300
C344        C  0.13949325  0.36413880  0.82088088     0.01300
C345        C  0.16347877  0.34304630  0.80720927    -0.10800
C346        C  0.18259366  0.31640870  0.82045669     0.03800
C347        C  0.17504634  0.30843575  0.84681541    -0.10300
H348        H  0.11649956  0.37509032  0.85850115     0.09400
H349        H  0.16681815  0.34692970  0.78621337     0.07000
H350        H  0.18655669  0.28470800  0.85584932     0.06800
C351        C  0.14851884  0.09478049  0.64006044     0.03800
C352        C  0.17365312  0.11395490  0.65426289    -0.12300
C353        C  0.18156188  0.10430251  0.68022496     0.01300
C354        C  0.16305880  0.07641299  0.69249520    -0.10800
C355        C  0.13870963  0.05644205  0.67833052     0.03800
C356        C  0.13345080  0.06394960  0.65160560    -0.10300
H357        H  0.18489559  0.13832647  0.64597960     0.09400
H358        H  0.16668139  0.07109420  0.71330678     0.07000
H359        H  0.11425573  0.04874690  0.64079789     0.06800
C360        C  0.38600492  0.06115768  0.64216121     0.03800
C361        C  0.41593496  0.04775458  0.65412907    -0.12300
C362        C  0.42390760  0.05631743  0.68016413     0.01300
C363        C  0.40371493  0.08195308  0.69342103    -0.10800
C364        C  0.37440380  0.09707582  0.68112322     0.03800
C365        C  0.36501231  0.08536612  0.65594735    -0.10300
H366        H  0.43261991  0.02983225  0.64316309     0.09400
H367        H  0.41042057  0.08959873  0.71330324     0.07000
H368        H  0.34163933  0.09537656  0.64673896     0.06800
C369        C  0.35688742  0.29687175  0.80166807     0.43200
N370        N  0.32313658  0.25211316  0.79437817     0.02100
C371        C  0.32235691  0.14285123  0.68456754    -0.05800
H372        H  0.31061805  0.27974144  0.66283256     0.07500
C373        C  0.19345250  0.27345806  0.71702338    -0.06200
Co374      Co  0.34451276  0.21107809  0.74677347     0.74200
N375        N  0.31757722  0.24911342  0.69887626    -0.25400
Co376      Co  0.27865663  0.20971122  0.70066755     0.74100
C377        C  0.20310132  0.28995787  0.69194321     0.43300
N378        N  0.22161160  0.25113502  0.77966572     0.01700
N379        N  0.23985904  0.24871098  0.70182227     0.01800
N380        N  0.36497439  0.14457831  0.71506484    -0.46200
H381        H  0.39006192  0.28396116  0.76523538     0.07500
N382        N  0.34183050  0.24981461  0.71711493     0.02100
N383        N  0.24012639  0.17023572  0.70374126     0.01800
C384        C  0.20455041  0.12730816  0.69578086     0.43400
N385        N  0.24608401  0.25129847  0.79776020    -0.24800
C386        C  0.36966891  0.14691389  0.78088262    -0.05700
N387        N  0.32907424  0.27875799  0.81097918    -0.45900
N388        N  0.23220410  0.14537959  0.68611404    -0.46100
C389        C  0.36107636  0.13164486  0.80650891     0.43200
N390        N  0.34212326  0.17077488  0.71856229     0.02000
N391        N  0.24671302  0.17319342  0.79970416    -0.24800
N392        N  0.34569596  0.25131652  0.77495547    -0.25300
N393        N  0.22182798  0.17263625  0.78195016     0.01700
H394        H  0.25544446  0.14255858  0.83537251     0.07600
H395        H  0.17302166  0.13894530  0.73305529     0.07600
N396        N  0.31710405  0.17045157  0.70094205    -0.25400
N397        N  0.21752894  0.24836832  0.72142877    -0.25000
N398        N  0.32446116  0.17332508  0.79679208     0.02100
C399        C  0.35654670  0.29219179  0.69037570     0.43400
C400        C  0.23864573  0.27699689  0.81534851    -0.06200
N401        N  0.21839051  0.17034066  0.72374121    -0.25000
H402        H  0.17128284  0.27812890  0.72948824     0.07600
N403        N  0.36548335  0.27487268  0.71271405    -0.46200
H404        H  0.25299553  0.28239990  0.83314709     0.07600
C405        C  0.20763399  0.13118423  0.80944204     0.43300
C406        C  0.36811311  0.27857195  0.77783420    -0.05700
Co407      Co  0.28523935  0.21244463  0.79777831     0.73800
N408        N  0.19734079  0.27563012  0.78385619    -0.45900
C409        C  0.35409195  0.12562356  0.69407272     0.43600
N410        N  0.33315280  0.14984503  0.81556703    -0.45900
Co411      Co  0.21938689  0.21061425  0.75173491     0.73900
C412        C  0.19523237  0.14389929  0.72061066    -0.06200
C413        C  0.32494829  0.27470308  0.68075236    -0.05800
N414        N  0.34605404  0.17266824  0.77671158    -0.25300
N415        N  0.23217979  0.27325856  0.68357749    -0.46100
H416        H  0.30624685  0.13636776  0.66788254     0.07600
C417        C  0.24009541  0.14776902  0.81797807    -0.06200
Cl418      Cl  0.28192826  0.21095170  0.74924133    -0.49200
C419        C  0.20655473  0.29333357  0.80580270     0.43300
H420        H  0.39184061  0.14165839  0.76851083     0.07500
N421        N  0.19801542  0.14794813  0.78701617    -0.45900
C422        C  0.42168798  0.32049745  0.63927562     0.03800
C423        C  0.44105631  0.34579678  0.65371901    -0.12300
C424        C  0.43094476  0.35579110  0.67912211     0.01300
C425        C  0.40175519  0.33956768  0.69044160    -0.10800
C426        C  0.38156096  0.31506968  0.67610943     0.03800
C427        C  0.39067990  0.30698330  0.65010739    -0.10300
H428        H  0.46540286  0.35573901  0.64598100     0.09400
H429        H  0.39540609  0.34505412  0.71079140     0.07000
H430        H  0.37566239  0.28730285  0.63932517     0.06800
C431        C  0.18019202  0.36396923  0.64242505     0.03800
C432        C  0.19477100  0.33220251  0.65338912    -0.12300
C433        C  0.18530792  0.32033058  0.67864434     0.01300
C434        C  0.15864848  0.33807355  0.69185252    -0.10800
C435        C  0.14240524  0.36826537  0.68094040     0.03800
C436        C  0.15438415  0.38222024  0.65685435    -0.10300
H437        H  0.21381190  0.31694767  0.64249554     0.09400
H438        H  0.15059783  0.32854625  0.71095871     0.07000
H439        H  0.14342938  0.40715672  0.64931305     0.06800
C440        C  0.45353706  0.37905707  0.69513819     0.43200
N441        N  0.49378689  0.41694818  0.70425054     0.02100
C442        C  0.09723948  0.41921564  0.81585660    -0.05800
H443        H  0.46524870  0.43473095  0.83455807     0.07500
C444        C  0.47196816  0.05389004  0.78071547    -0.06200
Co445      Co  0.03271570  0.39529276  0.75279159     0.74200
N446        N  0.49590303  0.42421262  0.79997223    -0.25400
Co447      Co  0.03341310  0.46462554  0.79845899     0.74100
C448        C  0.45669064  0.04418210  0.80590555     0.43300
N449        N  0.49510659  0.02461630  0.71859216     0.01700
N450        N  0.49617690  0.00568174  0.79662366     0.01800
N451        N  0.09711426  0.37540003  0.78511668    -0.46200
H452        H  0.46468409  0.34534973  0.73235262     0.07500
N453        N  0.49564677  0.39786114  0.78258904     0.02100
N454        N  0.07139401  0.00407038  0.79590242     0.01800
C455        C  0.11483446  0.03805480  0.80416797     0.43400
N456        N  0.49446495  0.99794293  0.70150495    -0.24800
C457        C  0.09643389  0.37189633  0.71925730    -0.05700
N458        N  0.47047527  0.40862117  0.68613160    -0.45900
N459        N  0.09658274  0.00941911  0.81304468    -0.46100
C460        C  0.11277985  0.38452212  0.69486935     0.43200
N461        N  0.07147850  0.39861408  0.78130237     0.02000
N462        N  0.06951495  0.99713003  0.70029591    -0.24800
N463        N  0.49415980  0.39364383  0.72403854    -0.25300
N464        N  0.07095718  0.02278083  0.71812553     0.01700
H465        H  0.10038964  0.98576315  0.66591076     0.07600
H466        H  0.10452068  0.07309416  0.76719698     0.07600
N467        N  0.07103034  0.42448649  0.79901033    -0.25400
N468        N  0.49635563  0.02886927  0.77676034    -0.25000
N469        N  0.06902490  0.41781711  0.70331625     0.02100
C470        C  0.45457583  0.38445097  0.80923629     0.43400
C471        C  0.46846059  0.00340336  0.68469372    -0.06200
N472        N  0.07168184  0.02764406  0.77634346    -0.25000
H473        H  0.46730377  0.07737761  0.76842705     0.07600
N474        N  0.47119675  0.37362903  0.78732358    -0.46200
H475        H  0.46207507  0.98616531  0.66831634     0.07600
C476        C  0.11383211  0.03375580  0.69261586     0.43300
C477        C  0.46930159  0.36896138  0.72018985    -0.05700
Co478      Co  0.03148362  0.45747134  0.70176738     0.73800
N479        N  0.47035157  0.04880583  0.71436017    -0.45900
C480        C  0.11486514  0.38701711  0.80631870     0.43600
N481        N  0.09417880  0.41291185  0.68604083    -0.45900
Co482      Co  0.03353215  0.02677188  0.74734428     0.73900
C483        C  0.09826678  0.05039164  0.77982457    -0.06200
C484        C  0.47083618  0.41808542  0.81768965    -0.05800
N485        N  0.06970959  0.39428342  0.72288921    -0.25300
N486        N  0.47335053  0.01446202  0.81498589    -0.46100
H487        H  0.10298701  0.43566009  0.83279717     0.07600
C488        C  0.09530285  0.00214763  0.68300675    -0.06200
Cl489      Cl  0.03256715  0.46101624  0.75010831    -0.49200
C490        C  0.45263046  0.03715843  0.69318645     0.43300
H491        H  0.10315756  0.34957085  0.73209332     0.07500
N492        N  0.09692459  0.04540461  0.71414648    -0.45900
C493        C  0.19158036  0.04316470  0.88379349    -0.04600
C494        C  0.16751969  0.03155998  0.90320790    -0.01700
C495        C  0.17915609  0.01357156  0.92617040     0.03200
C496        C  0.21488427  0.01136659  0.93164897    -0.04600
C497        C  0.23878688  0.02562232  0.91327987    -0.01700
C498        C  0.22740396  0.03887785  0.88882223     0.03200
C499        C  0.13080101  0.03826664  0.89987865     0.37900
C500        C  0.27554555  0.02535654  0.91910140     0.37900
C501        C  0.25285474  0.04551809  0.86832437     0.36300
C502        C  0.15446127  0.99599588  0.94349900     0.36300
N503        N  0.27319556  0.05055122  0.85200875    -0.38500
N504        N  0.13483841  0.98186126  0.95733429    -0.38500
N505        N  0.30486996  0.52537440  0.92358423    -0.38000
N506        N  0.10148290  0.04360271  0.89732065    -0.38000
C507        C  0.33865991  0.38415745  0.93265694    -0.04600
C508        C  0.35624943  0.41084889  0.91790006    -0.01700
C509        C  0.37055866  0.40253001  0.89326966     0.03200
C510        C  0.37141577  0.36621836  0.88457280    -0.04600
C511        C  0.35775464  0.33869020  0.90128534    -0.01700
C512        C  0.33951625  0.34793650  0.92434257     0.03200
C513        C  0.35918230  0.44728141  0.92806898     0.37900
C514        C  0.36269216  0.30079629  0.89504806     0.37900
C515        C  0.32081606  0.32044305  0.93900014     0.36300
C516        C  0.38221438  0.43201573  0.87649757     0.36300
N517        N  0.30586251  0.29849827  0.95067455    -0.38500
N518        N  0.39142144  0.45571739  0.86327156    -0.38500
N519        N  0.36670973  0.27058690  0.89010152    -0.38000
N520        N  0.36204718  0.47608401  0.93649508    -0.38000
C521        C  0.13380737  0.11109560  0.61549403    -0.04600
C522        C  0.15598750  0.12488889  0.59569421    -0.01700
C523        C  0.14267173  0.14742690  0.57560030     0.03200
C524        C  0.10650331  0.15177243  0.57273722    -0.04600
C525        C  0.08415250  0.13431071  0.59070559    -0.01700
C526        C  0.09758740  0.11653089  0.61297302     0.03200
C527        C  0.19235891  0.11512515  0.59562654     0.37900
C528        C  0.04711201  0.13415244  0.58611150     0.37900
C529        C  0.07378637  0.10581376  0.63370827     0.36300
C530        C  0.16626898  0.16662951  0.55830842     0.36300
N531        N  0.05462985  0.09741922  0.65014001    -0.38500
N532        N  0.18526291  0.18202692  0.54467645    -0.38500
N533        N  0.01763289  0.13347787  0.58228924    -0.38000
N534        N  0.22122763  0.10680256  0.59555826    -0.38000
C535        C  0.43670816  0.30467477  0.61469117    -0.04600
C536        C  0.44938633  0.32749100  0.59438340    -0.01700
C537        C  0.46869251  0.31293988  0.57336641     0.03200
C538        C  0.47335115  0.27517192  0.57134463    -0.04600
C539        C  0.45770623  0.25217294  0.59010929    -0.01700
C540        C  0.44103655  0.26670487  0.61230932     0.03200
C541        C  0.44243886  0.36601942  0.59499179     0.37900
C542        C  0.45815362  0.21336532  0.58626061     0.37900
C543        C  0.43023458  0.24229178  0.63322593     0.36300
C544        C  0.48425791  0.33693063  0.55405095     0.36300
N545        N  0.42176080  0.22265920  0.64983508    -0.38500
N546        N  0.49661441  0.35605781  0.53859738    -0.38500
N547        N  0.95778896  0.18245883  0.58298920    -0.38000
N548        N  0.43686007  0.39674608  0.59549918    -0.38000
C549        C  0.10689843  0.27836518  0.93043768    -0.04600
C550        C  0.14314118  0.28224741  0.92791483    -0.01700
C551        C  0.15719594  0.30148082  0.90628859     0.03200
C552        C  0.13532396  0.31416173  0.88579682    -0.04600
C553        C  0.09892452  0.31022389  0.88866959    -0.01700
C554        C  0.08503825  0.29465937  0.91160639     0.03200
C555        C  0.16599135  0.26655192  0.94753388     0.37900
C556        C  0.07523531  0.31990280  0.86758430     0.37900
C557        C  0.04792773  0.29569912  0.91600205     0.36300
C558        C  0.19413621  0.30839400  0.90532985     0.36300
N559        N  0.01843794  0.29695630  0.91973681    -0.38500
N560        N  0.22359869  0.31389748  0.90459999    -0.38500
N561        N  0.05611658  0.32755282  0.85093159    -0.38000
N562        N  0.18419586  0.25442368  0.96336749    -0.38000
C563        C  0.43939797  0.12230066  0.88430251    -0.04600
C564        C  0.45256598  0.10020577  0.90491587    -0.01700
C565        C  0.47177450  0.11560071  0.92570000     0.03200
C566        C  0.47561647  0.15351066  0.92738406    -0.04600
C567        C  0.45974946  0.17574163  0.90822813    -0.01700
C568        C  0.44331985  0.16038854  0.88618890     0.03200
C569        C  0.44592802  0.06158293  0.90503899     0.37900
C570        C  0.45942072  0.21464216  0.91158019     0.37900
C571        C  0.43212009  0.18418295  0.86501903     0.36300
C572        C  0.48793326  0.09232368  0.94520766     0.36300
N573        N  0.42325488  0.20335011  0.84823566    -0.38500
N574        N  0.50083078  0.07364233  0.96070475    -0.38500
N575        N  0.45837474  0.24563216  0.91435879    -0.38000
N576        N  0.44053689  0.03080405  0.90512981    -0.38000
C577        C  0.35011089  0.02436948  0.56690711    -0.04600
C578        C  0.35365478  0.06169705  0.57143507    -0.01700
C579        C  0.36739066  0.07381189  0.59545889     0.03200
C580        C  0.37586550  0.04855642  0.61554191    -0.04600
C581        C  0.37381656  0.01104032  0.61026524    -0.01700
C582        C  0.36250751  0.99923121  0.58557181     0.03200
C583        C  0.34234756  0.08754331  0.55165639     0.37900
C584        C  0.38122436  0.98426213  0.63053699     0.37900
C585        C  0.36318819  0.46101958  0.57936361     0.36300
C586        C  0.37259819  0.11223782  0.59945644     0.36300
N587        N  0.36439489  0.43061595  0.57430373    -0.38500
N588        N  0.37666058  0.14289446  0.60263984    -0.38500
N589        N  0.38713946  0.46277552  0.64657944    -0.38000
N590        N  0.33347300  0.10814226  0.53580753    -0.38000
C591        C  0.19240589  0.37856175  0.61626230    -0.04600
C592        C  0.16848629  0.39170897  0.59716374    -0.01700
C593        C  0.18039309  0.40931005  0.57408305     0.03200
C594        C  0.21599137  0.40966945  0.56806232    -0.04600
C595        C  0.23940898  0.39264452  0.58548088    -0.01700
C596        C  0.22824657  0.37996859  0.61021809     0.03200
C597        C  0.13159017  0.38646192  0.60070356     0.37900
C598        C  0.27524496  0.38791324  0.57775251     0.35900
C599        C  0.25424299  0.37064679  0.62973304     0.36300
C600        C  0.15609170  0.42767038  0.55685735     0.36300
N601        N  0.27520660  0.36341621  0.64515264    -0.38500
N602        N  0.13673457  0.44238486  0.54310879    -0.38500
N603        N  0.30359279  0.38342515  0.57128336    -0.38000
N604        N  0.10215215  0.38219045  0.60347845    -0.38000
C605        C  0.19210741  0.05746083  0.11514536    -0.04600
C606        C  0.20581965  0.07819743  0.09400573    -0.01700
C607        C  0.22314786  0.06111195  0.07299891     0.03200
C608        C  0.22306692  0.02301701  0.07100793    -0.04600
C609        C  0.20728888  0.00228111  0.09111388    -0.01700
C610        C  0.19398160  0.01913319  0.11372814     0.03200
C611        C  0.20214808  0.11720084  0.09367193     0.37900
C612        C  0.20537500  0.46322394  0.08876273     0.37900
C613        C  0.18458597  0.99655484  0.13609218     0.36300
C614        C  0.24185859  0.08279960  0.05385503     0.36300
N615        N  0.17727541  0.97843858  0.15388991    -0.38500
N616        N  0.25671514  0.10013502  0.03856513    -0.38500
N617        N  0.20378096  0.43212016  0.08680261    -0.38000
N618        N  0.19943377  0.14834644  0.09350933    -0.38000
C619        C  0.11243138  0.15524359  0.43439862    -0.04600
C620        C  0.10332023  0.12020944  0.42612192    -0.01700
C621        C  0.11900859  0.10540391  0.40361357     0.03200
C622        C  0.13769476  0.12813825  0.38596003    -0.04600
C623        C  0.14636844  0.16359537  0.39459500    -0.01700
C624        C  0.13761319  0.17461912  0.42016858     0.03200
C625        C  0.07697013  0.09981159  0.44008299     0.37900
C626        C  0.16032313  0.19072423  0.37681655     0.37900
C627        C  0.15166958  0.20782254  0.43087057     0.36300
C628        C  0.11617256  0.06680401  0.39919865     0.36300
N629        N  0.16280723  0.23411663  0.43968435    -0.38500
N630        N  0.11392340  0.03599709  0.39576020    -0.38500
N631        N  0.17100764  0.21285806  0.36282565    -0.38000
N632        N  0.05585476  0.08352216  0.45110303    -0.38000
C633        C  0.39128639  0.05803337  0.38607314    -0.04600
C634        C  0.38700986  0.01991353  0.38729530    -0.01700
C635        C  0.37132283  0.00351304  0.40936343     0.03200
C636        C  0.35653307  0.02495299  0.42928364    -0.04600
C637        C  0.36151506  0.06288798  0.42851361    -0.01700
C638        C  0.37983544  0.07913556  0.40748800     0.03200
C639        C  0.39644340  0.99734576  0.36518307     0.37900
C640        C  0.34706389  0.08547032  0.44898244     0.37900
C641        C  0.38672121  0.11769275  0.40788134     0.36300
C642        C  0.36948311  0.46435495  0.41122647     0.36300
N643        N  0.39217117  0.14844577  0.40825830    -0.38500
N644        N  0.36784360  0.43317085  0.41273335    -0.38500
N645        N  0.33576672  0.10353349  0.46536723    -0.38000
N646        N  0.40386219  0.97926566  0.34757972    -0.38000
C647        C  0.13493044  0.30546952  0.11574625    -0.04600
C648        C  0.11650174  0.32845080  0.09818748    -0.01700
C649        C  0.09859877  0.31364944  0.07661982     0.03200
C650        C  0.10508132  0.27766741  0.06895221    -0.04600
C651        C  0.12915827  0.25692991  0.08341991    -0.01700
C652        C  0.14058417  0.26897573  0.10814590     0.03200
C653        C  0.11675678  0.36736633  0.10160381     0.37900
C654        C  0.14004140  0.22199477  0.07358143     0.37900
C655        C  0.15492375  0.24247787  0.12628503     0.36300
C656        C  0.07268241  0.33513161  0.06306345     0.36300
N657        N  0.16597131  0.22111300  0.14075297    -0.38500
N658        N  0.05183394  0.35232884  0.05246730    -0.38500
N659        N  0.14833074  0.19429254  0.06525794    -0.38000
N660        N  0.11736392  0.39842642  0.10417515    -0.38000
C661        C  0.44367045  0.12912137  0.11343666    -0.04600
C662        C  0.45395755  0.10581549  0.09290128    -0.01700
C663        C  0.46674826  0.12036552  0.06911664     0.03200
C664        C  0.46726047  0.15816421  0.06514125    -0.04600
C665        C  0.45272885  0.18110527  0.08420654    -0.01700
C666        C  0.44288666  0.16701334  0.10879496     0.03200
C667        C  0.45169733  0.06690263  0.09623160     0.37900
C668        C  0.45016572  0.21970751  0.07904406     0.37900
C669        C  0.43460037  0.19204601  0.12976475     0.36300
C670        C  0.98067388  0.09654965  0.04920594     0.36300
N671        N  0.42809134  0.21208444  0.14642647    -0.38500
N672        N  0.99165658  0.07758895  0.03324402    -0.38500
N673        N  0.44812731  0.25044000  0.07489683    -0.38000
N674        N  0.44991111  0.03585799  0.09888185    -0.38000
C675        C  0.21567554  0.40544199  0.42877716    -0.04600
C676        C  0.19236481  0.42433692  0.41241270    -0.01700
C677        C  0.18034492  0.40838631  0.38908524     0.03200
C678        C  0.18603833  0.37089079  0.38437548    -0.04600
C679        C  0.20499828  0.35063584  0.40330568    -0.01700
C680        C  0.22178562  0.36833270  0.42421655     0.03200
C681        C  0.18242844  0.46111766  0.41885479     0.37900
C682        C  0.20737293  0.31156960  0.40148774     0.37900
C683        C  0.24562979  0.34829187  0.44086590     0.36300
C684        C  0.16500680  0.43190632  0.36928545     0.36300
N685        N  0.26447274  0.33214182  0.45417394    -0.38500
N686        N  0.15296314  0.45094206  0.35360377    -0.38500
N687        N  0.20944712  0.28044135  0.39996073    -0.38000
N688        N  0.17478054  0.49045922  0.42405089    -0.38000
C689        C  0.38551243  0.36148022  0.11483355    -0.04600
C690        C  0.34868399  0.36160160  0.11361888    -0.01700
C691        C  0.33155370  0.37493904  0.09114549     0.03200
C692        C  0.35039235  0.39188661  0.07078677    -0.04600
C693        C  0.38692391  0.39248160  0.07200680    -0.01700
C694        C  0.40436983  0.37550491  0.09316126     0.03200
C695        C  0.32772584  0.34961774  0.13573355     0.37900
C696        C  0.40659967  0.41096219  0.05169256     0.37900
C697        C  0.44167679  0.37151875  0.09213215     0.36300
C698        C  0.29415642  0.37176907  0.08911659     0.36300
N699        N  0.47140596  0.36804496  0.09116593    -0.38500
N700        N  0.26440636  0.36917439  0.08741729    -0.38500
N701        N  0.42227969  0.42555946  0.03540638    -0.38000
N702        N  0.31073815  0.33986829  0.15313170    -0.38000
C703        C  0.45013607  0.30200872  0.38460845    -0.04600
C704        C  0.45303871  0.26418372  0.38896809    -0.01700
C705        C  0.46427293  0.25076183  0.41343175     0.03200
C706        C  0.47624067  0.27471052  0.43290046    -0.04600
C707        C  0.47278964  0.31236249  0.42897982    -0.01700
C708        C  0.45870762  0.32594359  0.40525358     0.03200
C709        C  0.44664404  0.23874143  0.36788840     0.37900
C710        C  0.98482728  0.33712023  0.44898021     0.37900
C711        C  0.45291343  0.36450809  0.40225479     0.36300
C712        C  0.46544563  0.21198190  0.41814497     0.36300
N713        N  0.44826559  0.39527394  0.39989108    -0.38500
N714        N  0.46668435  0.18113127  0.42196914    -0.38500
N715        N  0.99439516  0.35675161  0.46503080    -0.38000
N716        N  0.44153716  0.21839185  0.35115062    -0.38000
C717        C  0.43814583  0.81602107  0.35848713     0.03800
C718        C  0.45727423  0.84209989  0.34434481    -0.12300
C719        C  0.44641125  0.85354386  0.31921928     0.01300
C720        C  0.41769104  0.83682033  0.30761451    -0.10800
C721        C  0.39897290  0.81031943  0.32126077     0.03800
C722        C  0.40823511  0.80153003  0.34707812    -0.10300
H723        H  0.48052384  0.85339190  0.35287056     0.09400
H724        H  0.40999437  0.84403185  0.28781242     0.07000
H725        H  0.39277203  0.78240194  0.35818077     0.06800
C726        C  0.40379532  0.84910841  0.13938806     0.03800
C727        C  0.42834947  0.87156064  0.15175109    -0.12300
C728        C  0.43911039  0.86430694  0.17763839     0.01300
C729        C  0.42345514  0.83610667  0.19175341    -0.10800
C730        C  0.39964998  0.81319219  0.17950482     0.03800
C731        C  0.39261884  0.81778585  0.15269067    -0.10300
H732        H  0.43709625  0.89611928  0.14212645     0.09400
H733        H  0.42896212  0.83272160  0.21252736     0.07000
H734        H  0.37454974  0.79972475  0.14317898     0.06800
C735        C  0.17470698  0.85384100  0.35899639     0.03800
C736        C  0.14295262  0.86334833  0.34732420    -0.12300
C737        C  0.13739996  0.85733471  0.32050043     0.01300
C738        C  0.16046226  0.83523513  0.30655960    -0.10800
C739        C  0.18952138  0.82055366  0.31915887     0.03800
C740        C  0.19751944  0.83155947  0.34473933    -0.10300
H741        H  0.12444407  0.87931253  0.35820250     0.09400
H742        H  0.15617946  0.83011678  0.28585507     0.07000
H743        H  0.22251111  0.82427833  0.35278433     0.06800
C744        C  0.43396057  0.61433409  0.13979274     0.03800
C745        C  0.45611145  0.59101682  0.15381464    -0.12300
C746        C  0.44732454  0.57912489  0.17928383     0.01300
C747        C  0.41760487  0.59316844  0.19146987    -0.10800
C748        C  0.39622525  0.61751028  0.17791730     0.03800
C749        C  0.40327722  0.62576800  0.15162104    -0.10300
H750        H  0.48001019  0.58221347  0.14482576     0.09400
H751        H  0.41157942  0.58589005  0.21162654     0.07000
H752        H  0.38566958  0.64279437  0.14053600     0.06800
C753        C  0.46453595  0.88303053  0.30509074     0.43200
N754        N  0.99890332  0.92713972  0.29689162     0.02100
C755        C  0.00017745  0.53417679  0.18398146    -0.05800
H756        H  0.00906420  0.90013569  0.16428274     0.07500
C757        C  0.12643881  0.90026048  0.22039890    -0.06200
Co758      Co  0.47792214  0.96804920  0.24831207     0.74200
N759        N  0.00343815  0.92923969  0.20076728    -0.25400
Co760      Co  0.04348690  0.96719604  0.20182562     0.74100
C761        C  0.11584776  0.88243288  0.19621568     0.43300
N762        N  0.10017873  0.92596688  0.28131166     0.01700
N763        N  0.08135693  0.92672513  0.20403379     0.01800
N764        N  0.45812011  0.53387601  0.21491923    -0.46200
H765        H  0.43163198  0.89596052  0.26829704     0.07500
N766        N  0.47905252  0.92916771  0.21895261     0.02100
N767        N  0.08287596  0.00592211  0.20364624     0.01800
C768        C  0.11846754  0.54886416  0.19465052     0.43400
N769        N  0.07584685  0.92608040  0.29945521    -0.24800
C770        C  0.45495647  0.53359234  0.28145086    -0.05700
N771        N  0.99266573  0.90077889  0.31402674    -0.45900
N772        N  0.09071529  0.53056616  0.18550856    -0.46100
C773        C  0.46455342  0.54913823  0.30665431     0.43200
N774        N  0.48103725  0.00793243  0.21923120     0.02000
N775        N  0.07633478  0.00511207  0.29984339    -0.24800
N776        N  0.47631756  0.92808832  0.27744246    -0.25300
N777        N  0.10110066  0.00539214  0.28200951     0.01700
H778        H  0.06593210  0.53832455  0.33361122     0.07600
H779        H  0.15012804  0.53756383  0.23211013     0.07600
N780        N  0.00578618  0.00739731  0.20136052    -0.25400
N781        N  0.10382327  0.92715699  0.22355127    -0.25000
N782        N  0.99944702  0.00589859  0.29756138     0.02100
C783        C  0.46244507  0.88921737  0.19144995     0.43400
C784        C  0.08187606  0.89858866  0.31626011    -0.06200
N785        N  0.10471966  0.00597618  0.22357234    -0.25000
H786        H  0.14824776  0.89494783  0.23314434     0.07600
N787        N  0.45407453  0.90570214  0.21409931    -0.46200
H788        H  0.06691064  0.89244118  0.33368969     0.07600
C789        C  0.11323099  0.55001028  0.30716262     0.43300
C790        C  0.45356878  0.90122607  0.28087659    -0.05700
Co791      Co  0.03762820  0.96602563  0.29912450     0.73800
N792        N  0.12279154  0.89951338  0.28464587    -0.45900
C793        C  0.46855128  0.55180517  0.19312452     0.43600
N794        N  0.99195639  0.53011938  0.31583317    -0.45900
Co795      Co  0.10310172  0.96623485  0.25268774     0.73900
C796        C  0.12790581  0.53236659  0.21977989    -0.06200
C797        C  0.99499515  0.90497621  0.18229360    -0.05800
N798        N  0.47763442  0.00689907  0.27762759    -0.25300
N799        N  0.08784571  0.90057693  0.18694626    -0.46100
H800        H  0.01565144  0.53956889  0.16669198     0.07600
C801        C  0.08179823  0.53225234  0.31670564    -0.06200
Cl802      Cl  0.04050490  0.96686505  0.25046099    -0.49200
C803        C  0.11283457  0.88053302  0.30604915     0.43300
H804        H  0.43281442  0.53944072  0.26912750     0.07500
N805        N  0.12381913  0.53161060  0.28577431    -0.45900
C806        C  0.14655858  0.81903810  0.14217830     0.03800
C807        C  0.17852607  0.80812662  0.15295026    -0.12300
C808        C  0.18735680  0.81679416  0.17883096     0.01300
C809        C  0.16636761  0.84067962  0.19286826    -0.10800
C810        C  0.13575882  0.85448290  0.18189979     0.03800
C811        C  0.12506352  0.84193799  0.15722287    -0.10300
H812        H  0.19633214  0.79207562  0.14148888     0.09400
H813        H  0.17373406  0.84809027  0.21257469     0.07000
H814        H  0.10001418  0.85015673  0.14979113     0.06800
C815        C  0.40453699  0.57577380  0.36144160     0.03800
C816        C  0.38376952  0.60144296  0.34820428    -0.12300
C817        C  0.39162663  0.61210874  0.32237685     0.01300
C818        C  0.41994479  0.59666943  0.30961034    -0.10800
C819        C  0.44116618  0.57157782  0.32254345     0.03800
C820        C  0.43460658  0.56282892  0.34895780    -0.10300
H821        H  0.35992572  0.61074130  0.35709657     0.09400
H822        H  0.42449999  0.60291489  0.28903740     0.07000
H823        H  0.45054880  0.54277405  0.35877930     0.06800
C824        C  0.14680957  0.61532023  0.35869686     0.03800
C825        C  0.17787969  0.62597588  0.34647699    -0.12300
C826        C  0.18467603  0.61714295  0.32026741     0.01300
C827        C  0.16338639  0.59223154  0.30749257    -0.10800
C828        C  0.13358971  0.57892265  0.31984308     0.03800
C829        C  0.12411331  0.59278952  0.34444784    -0.10300
H830        H  0.19681738  0.64166686  0.35708090     0.09400
H831        H  0.16959809  0.58364578  0.28774710     0.07000
H832        H  0.09927133  0.58548970  0.35261891     0.06800
C833        C  0.17860392  0.57547048  0.13955688     0.03800
C834        C  0.19851554  0.60215593  0.15217429    -0.12300
C835        C  0.18985654  0.61404132  0.17742417     0.01300
C836        C  0.16239322  0.59760376  0.19088020    -0.10800
C837        C  0.14189945  0.57146337  0.17857186     0.03800
C838        C  0.14861991  0.56245235  0.15230141    -0.10300
H839        H  0.22234191  0.61168573  0.14333639     0.09400
H840        H  0.15769303  0.60430371  0.21128932     0.07000
H841        H  0.13276067  0.54222187  0.14283544     0.06800
C842        C  0.37665570  0.79035549  0.19563702     0.43200
N843        N  0.33195215  0.75747089  0.20332217     0.02100
C844        C  0.22862549  0.76282148  0.31474893    -0.05800
H845        H  0.35752636  0.74158321  0.33431786     0.07500
C846        C  0.35257269  0.62420908  0.28164101    -0.06200
Co847      Co  0.29371926  0.78181692  0.25111985     0.74200
N848        N  0.32848716  0.75252132  0.29900629    -0.25400
Co849      Co  0.29037634  0.71315858  0.29780999     0.74100
C850        C  0.36724960  0.63415844  0.30692820     0.43300
N851        N  0.32850632  0.65157174  0.21846082     0.01700
N852        N  0.32733692  0.67189056  0.29689073     0.01800
N853        N  0.23112609  0.80627506  0.28325988    -0.46200
H854        H  0.36649566  0.82505832  0.23220843     0.07500
N855        N  0.32999686  0.77849294  0.28115911     0.02100
N856        N  0.25253635  0.67331246  0.29579991     0.01800
C857        C  0.21319148  0.63502873  0.30607900     0.43400
N858        N  0.32842303  0.67763005  0.20064688    -0.24800
C859        C  0.23366767  0.81020104  0.21643719    -0.05700
N860        N  0.35732596  0.76287490  0.18621735    -0.45900
N861        N  0.22912148  0.66558927  0.31397329    -0.46100
C862        C  0.21754881  0.79976824  0.19170817     0.43200
N863        N  0.25461693  0.78074784  0.27937356     0.02000
N864        N  0.25399652  0.67919247  0.20010222    -0.24800
N865        N  0.33267385  0.78067688  0.22289126    -0.25300
N866        N  0.25314615  0.65366373  0.21840497     0.01700
H867        H  0.22559118  0.68644530  0.16382882     0.07600
H868        H  0.22438170  0.60059544  0.26948676     0.07600
N869        N  0.25366695  0.75491591  0.29745424    -0.25400
N870        N  0.32785828  0.64880514  0.27719287    -0.25000
N871        N  0.25658372  0.76090301  0.20187504     0.02100
C872        C  0.37028966  0.79124113  0.30835527     0.43400
C873        C  0.35262573  0.67083451  0.18269792    -0.06200
N874        N  0.25307745  0.64942618  0.27666991    -0.25000
H875        H  0.35785672  0.60085513  0.26961016     0.07600
N876        N  0.35469581  0.80229009  0.28598782    -0.46200
H877        H  0.35782180  0.68725302  0.16547763     0.07600
C878        C  0.21306869  0.63861888  0.19159465     0.43300
C879        C  0.36011435  0.80234197  0.21985005    -0.05700
Co880      Co  0.29255709  0.71894606  0.20092883     0.73800
N881        N  0.35207057  0.62640500  0.21362547    -0.45900
C882        C  0.21340310  0.79652449  0.30500569     0.43600
N883        N  0.23302754  0.76890547  0.18379982    -0.45900
Co884      Co  0.29071885  0.65034760  0.24762358     0.73900
C885        C  0.22882388  0.62437441  0.28125548    -0.06200
C886        C  0.35305708  0.75814910  0.31704859    -0.05800
N887        N  0.25750100  0.78471607  0.22103202    -0.25300
N888        N  0.35010294  0.66362463  0.31551076    -0.46100
H889        H  0.22272943  0.74763984  0.33241834     0.07600
C890        C  0.22981775  0.67164963  0.18195428    -0.06200
Cl891      Cl  0.29170990  0.71605482  0.24937998    -0.49200
C892        C  0.36811376  0.63686050  0.19124902     0.43300
H893        H  0.22916780  0.83365011  0.22853747     0.07500
N894        N  0.22920345  0.62893413  0.21400313    -0.45900
N895        N  0.27977292  0.97061082  0.53693979    -0.35900
N896        N  0.32360693  0.00464454  0.49731408    -0.56500
N897        N  0.28496166  0.96582126  0.45747970    -0.35900
N898        N  0.23835104  0.93538375  0.49752457    -0.56500
C899        C  0.29624750  0.99624444  0.55092532     0.27700
C900        C  0.25196467  0.96016386  0.55115552     0.27700
C901        C  0.30390960  0.98887877  0.44237180     0.27700
C902        C  0.25999303  0.95140328  0.44206622     0.27700
C903        C  0.34234944  0.51184263  0.51899101     0.36300
C904        C  0.34476982  0.51025679  0.47664012     0.36300
C905        C  0.22461590  0.91922767  0.51908436     0.36300
C906        C  0.22646279  0.91713773  0.47649395     0.36300
C907        C  0.27857597  0.00237619  0.57421322    -0.21200
C908        C  0.25061553  0.97946985  0.57437874    -0.21200
C909        C  0.29073725  0.98916563  0.41706192    -0.21200
C910        C  0.26388309  0.96494331  0.41665939    -0.21200
C911        C  0.37551494  0.52248400  0.51216857    -0.22200
C912        C  0.37706160  0.52149419  0.48519317    -0.22200
C913        C  0.20337782  0.89096648  0.51176425    -0.22200
C914        C  0.20385315  0.89018617  0.48478104    -0.22200
C915        C  0.32889590  0.51100768  0.54464670    -0.17600
C916        C  0.23022607  0.93074447  0.54515595    -0.17600
C917        C  0.23489377  0.92513038  0.44992578    -0.17600
C918        C  0.33435948  0.00760522  0.45017355    -0.17600
H919        H  0.28574533  0.02062295  0.58983661     0.15300
H920        H  0.23194086  0.97655042  0.59010605     0.15300
H921        H  0.30015358  0.00436687  0.40027937     0.15300
H922        H  0.24935552  0.95811314  0.39925695     0.15300
H923        H  0.39620139  0.53051085  0.52522082     0.13600
H924        H  0.39925377  0.52850776  0.47323520     0.13600
H925        H  0.18856877  0.87318494  0.52443522     0.13600
H926        H  0.18924437  0.87165284  0.47275326     0.13600
H927        H  0.28898106  0.95839160  0.52002927     0.26900
H928        H  0.28997005  0.95859594  0.47679273     0.26900
N929        N  0.03667847  0.71822575  0.03803256    -0.35900
N930        N  0.50013456  0.67770865  0.99689544    -0.56500
N931        N  0.04249895  0.71403187  0.95842075    -0.35900
N932        N  0.08191826  0.75110230  0.99971687    -0.56500
C933        C  0.01912153  0.69317712  0.05218783     0.27700
C934        C  0.06131996  0.73219073  0.05399170     0.27700
C935        C  0.02745574  0.68807848  0.94357093     0.27700
C936        C  0.07043899  0.72637454  0.94511377     0.27700
C937        C  0.47913138  0.67094909  0.01749279     0.36300
C938        C  0.48213770  0.66896852  0.97511085     0.36300
C939        C  0.09152687  0.77053570  0.02090581     0.36300
C940        C  0.09375839  0.76910518  0.97837853     0.36300
C941        C  0.03270401  0.69117511  0.07737414    -0.21200
C942        C  0.05862359  0.71624146  0.07871099    -0.21200
C943        C  0.04615346  0.68380595  0.92056855    -0.21200
C944        C  0.07329141  0.70795257  0.92154186    -0.21200
C945        C  0.44771188  0.65747011  0.00886810    -0.22200
C946        C  0.44960302  0.65623886  0.98189803    -0.22200
C947        C  0.11050405  0.80046532  0.01300362    -0.22200
C948        C  0.11109965  0.80009176  0.98603866    -0.22200
C949        C  0.48907659  0.67447380  0.04397610    -0.17600
C950        C  0.08487474  0.76024449  0.04722993    -0.17600
C951        C  0.09084592  0.75668642  0.95226103    -0.17600
C952        C  0.49577214  0.67039231  0.94940874    -0.17600
H953        H  0.02412857  0.67418886  0.09351077     0.15300
H954        H  0.07318832  0.72210841  0.09628642     0.15300
H955        H  0.04040457  0.66571326  0.90452257     0.15300
H956        H  0.09244360  0.71221253  0.90631205     0.15300
H957        H  0.42592533  0.64905328  0.02078465     0.13600
H958        H  0.42952697  0.64672607  0.96883347     0.13600
H959        H  0.12268662  0.82057882  0.02522506     0.13600
H960        H  0.12360472  0.81999159  0.97359000     0.13600
H961        H  0.03055051  0.72689691  0.01920549     0.26900
H962        H  0.03261761  0.72506742  0.97551082     0.26900
N963        N  0.04466851  0.71656197  0.46315778    -0.35900
N964        N  0.00433805  0.75499967  0.50268697    -0.56500
N965        N  0.04324458  0.71642386  0.54281558    -0.35900
N966        N  0.08623568  0.68137478  0.50314944    -0.56500
C967        C  0.02844122  0.74204832  0.44849770     0.27700
C968        C  0.07049778  0.70279742  0.44831955     0.27700
C969        C  0.02660773  0.74166408  0.55725409     0.27700
C970        C  0.06981771  0.70358466  0.55746230     0.27700
C971        C  0.48507389  0.76238467  0.48119120     0.36300
C972        C  0.48414510  0.76193957  0.52368726     0.36300
C973        C  0.09735182  0.66264258  0.48207241     0.36300
C974        C  0.09638337  0.66251904  0.52461166     0.36300
C975        C  0.04422117  0.74476282  0.42412833    -0.21200
C976        C  0.07009014  0.71955601  0.42375718    -0.21200
C977        C  0.04290008  0.74499975  0.58140252    -0.21200
C978        C  0.07017673  0.72098090  0.58153047    -0.21200
C979        C  0.45258360  0.77451443  0.48848148    -0.22200
C980        C  0.45197208  0.77420791  0.51551743    -0.22200
C981        C  0.11557351  0.63228606  0.49019587    -0.22200
C982        C  0.11427470  0.63175622  0.51713964    -0.22200
C983        C  0.49732525  0.75989846  0.45518401    -0.17600
C984        C  0.09266054  0.67380481  0.45570475    -0.17600
C985        C  0.09126163  0.67387171  0.55078620    -0.17600
C986        C  0.49539481  0.75933707  0.55002769    -0.17600
H987        H  0.03688773  0.76204121  0.40779215     0.15300
H988        H  0.08591165  0.71403100  0.40678015     0.15300
H989        H  0.03541867  0.76234379  0.59747876     0.15300
H990        H  0.08773656  0.71613016  0.59775278     0.15300
H991        H  0.43165278  0.78286517  0.47567410     0.13600
H992        H  0.43045674  0.78232282  0.52774318     0.13600
H993        H  0.12847530  0.61249900  0.47809407     0.13600
H994        H  0.12575044  0.61131604  0.52971482     0.13600
H995        H  0.03671618  0.70704094  0.48142969     0.26900
H996        H  0.03507623  0.70619006  0.52489571     0.26900
N997        N  0.27332742  0.94383061  0.96297980    -0.35900
N998        N  0.31642720  0.90891663  0.00212965    -0.56500
N999        N  0.28377637  0.95470943  0.04142767    -0.35900
N1000       N  0.24066491  0.98973772  0.00188504    -0.56500
C1001       C  0.28705199  0.91671767  0.94862122     0.27700
C1002       C  0.24753426  0.95853065  0.94847786     0.27700
C1003       C  0.31061265  0.94083125  0.05543006     0.27700
C1004       C  0.27053251  0.98252159  0.05548218     0.27700
C1005       C  0.32828243  0.89069821  0.98110043     0.36300
C1006       C  0.33325223  0.89566336  0.02328551     0.36300
C1007       C  0.22424323  0.50312403  0.98049814     0.36300
C1008       C  0.22831539  0.50765710  0.02291274     0.36300
C1009       C  0.26966810  0.91397965  0.92490506    -0.21200
C1010       C  0.24460420  0.94021035  0.92486455    -0.21200
C1011       C  0.31437228  0.96009566  0.07855466    -0.21200
C1012       C  0.28915533  0.98624379  0.07860621    -0.21200
C1013       C  0.35289943  0.86563257  0.98884154    -0.22200
C1014       C  0.35518969  0.86790338  0.01571526    -0.22200
C1015       C  0.20156556  0.53019235  0.98792450    -0.22200
C1016       C  0.20308674  0.53201254  0.01486673    -0.22200
C1017       C  0.31669567  0.89618440  0.95513028    -0.17600
C1018       C  0.22857493  0.49013070  0.95460636    -0.17600
C1019       C  0.24113012  0.50388232  0.04889341    -0.17600
C1020       C  0.33093714  0.91009739  0.04888990    -0.17600
H1021       H  0.27490321  0.89530502  0.90910563     0.15300
H1022       H  0.22674549  0.94579697  0.90895073     0.15300
H1023       H  0.33328037  0.95563409  0.09393762     0.15300
H1024       H  0.28495495  0.00581012  0.09400350     0.15300
H1025       H  0.36723882  0.84713648  0.97659558     0.13600
H1026       H  0.37199567  0.85168082  0.02804354     0.13600
H1027       H  0.18496967  0.54643108  0.97545802     0.13600
H1028       H  0.18798316  0.55009411  0.02690608     0.13600
H1029       H  0.28304502  0.95386078  0.98045455     0.26900
H1030       H  0.27365017  0.94428923  0.02419492     0.26900
C1031       C  0.38403883  0.85733031  0.85747971     0.03800
C1032       C  0.36411833  0.83474129  0.84140176    -0.12300
C1033       C  0.37559801  0.82495074  0.81635474     0.01300
C1034       C  0.40554495  0.84104249  0.80606311    -0.10800
C1035       C  0.42471032  0.86554134  0.82109966     0.03800
C1036       C  0.41486015  0.87209268  0.84721687    -0.10300
H1037       H  0.33979574  0.82412325  0.84866097     0.09400
H1038       H  0.41377810  0.83490918  0.78625287     0.07000
H1039       H  0.43104727  0.88890181  0.85944416     0.06800
C1040       C  0.42453337  0.60556249  0.85989192     0.03800
C1041       C  0.39393929  0.61902189  0.84813100    -0.12300
C1042       C  0.38527854  0.60947387  0.82225225     0.01300
C1043       C  0.40509679  0.58341468  0.80924888    -0.10800
C1044       C  0.43388053  0.56767106  0.82137555     0.03800
C1045       C  0.44384635  0.57917861  0.84642300    -0.10300
H1046       H  0.37884472  0.63948111  0.85804870     0.09400
H1047       H  0.39901350  0.57652119  0.78908109     0.07000
H1048       H  0.46810890  0.56955104  0.85453313     0.06800
C1049       C  0.17973758  0.55860993  0.85798343     0.03800
C1050       C  0.19560284  0.58973330  0.84743947    -0.12300
C1051       C  0.18779157  0.60168753  0.82193808     0.01300
C1052       C  0.16117111  0.58478559  0.80791890    -0.10800
C1053       C  0.14377087  0.55489023  0.81856213     0.03800
C1054       C  0.15415158  0.54107144  0.84311355    -0.10300
H1055       H  0.21479925  0.60401189  0.85885952     0.09400
H1056       H  0.15442314  0.59461866  0.78849842     0.07000
H1057       H  0.14237511  0.51653613  0.85062509     0.06800
C1058       C  0.15011108  0.82857891  0.86054232     0.03800
C1059       C  0.13509905  0.85874191  0.84797820    -0.12300
C1060       C  0.13949482  0.86413869  0.82088261     0.01300
C1061       C  0.16348238  0.84304835  0.80721158    -0.10800
C1062       C  0.18259639  0.81641015  0.82045883     0.03800
C1063       C  0.17504677  0.80843475  0.84681684    -0.10300
H1064       H  0.11649683  0.87508669  0.85850188     0.09400
H1065       H  0.16682364  0.84693349  0.78621600     0.07000
H1066       H  0.18655692  0.78470663  0.85585037     0.06800
C1067       C  0.14852000  0.59477727  0.64006350     0.03800
C1068       C  0.17365323  0.61395390  0.65426540    -0.12300
C1069       C  0.18156313  0.60430239  0.68022750     0.01300
C1070       C  0.16306304  0.57641122  0.69249800    -0.10800
C1071       C  0.13871504  0.55643849  0.67833379     0.03800
C1072       C  0.13345461  0.56394543  0.65160900    -0.10300
H1073       H  0.18489389  0.63832606  0.64598155     0.09400
H1074       H  0.16668651  0.57109287  0.71330956     0.07000
H1075       H  0.11425995  0.54874155  0.64080174     0.06800
C1076       C  0.38600716  0.56115763  0.64216067     0.03800
C1077       C  0.41593966  0.54775933  0.65412758    -0.12300
C1078       C  0.42391259  0.55632356  0.68016229     0.01300
C1079       C  0.40371742  0.58195617  0.69341982    -0.10800
C1080       C  0.37440393  0.59707518  0.68112291     0.03800
C1081       C  0.36501252  0.58536428  0.65594710    -0.10300
H1082       H  0.43262614  0.52983896  0.64316123     0.09400
H1083       H  0.41042311  0.58960231  0.71330193     0.07000
H1084       H  0.34163823  0.59537225  0.64673915     0.06800
C1085       C  0.35689094  0.79686934  0.80166872     0.43200
N1086       N  0.32313849  0.75211231  0.79437904     0.02100
C1087       C  0.32235559  0.64284901  0.68456871    -0.05800
H1088       H  0.31061758  0.77973957  0.66283478     0.07500
C1089       C  0.19345511  0.77345968  0.71702561    -0.06200
Co1090     Co  0.34451308  0.71107504  0.74677506     0.74200
N1091       N  0.31757800  0.74911056  0.69887783    -0.25400
Co1092     Co  0.27865685  0.70971002  0.70066953     0.74100
C1093       C  0.20310384  0.78995836  0.69194516     0.43300
N1094       N  0.22161388  0.75113755  0.77966732     0.01700
N1095       N  0.23986071  0.74871099  0.70182424     0.01800
N1096       N  0.36497278  0.64457466  0.71506623    -0.46200
H1097       H  0.39006551  0.78395667  0.76523639     0.07500
N1098       N  0.34183168  0.74981101  0.71711616     0.02100
N1099       N  0.24012599  0.67023646  0.70374366     0.01800
C1100       C  0.20454999  0.62730960  0.69578317     0.43400
N1101       N  0.24608644  0.75130072  0.79776164    -0.24800
C1102       C  0.36966756  0.64691175  0.78088559    -0.05700
N1103       N  0.32907697  0.77875712  0.81097978    -0.45900
N1104       N  0.23220383  0.64538041  0.68611648    -0.46100
C1105       C  0.36107536  0.63164475  0.80651265     0.43200
N1106       N  0.34212186  0.67077124  0.71856422     0.02000
N1107       N  0.24671272  0.67319619  0.79970705    -0.24800
N1108       N  0.34569801  0.75131419  0.77495648    -0.25300
N1109       N  0.22182762  0.67263912  0.78195311     0.01700
H1110       H  0.25544345  0.64256285  0.83537615     0.07600
H1111       H  0.17302086  0.63894700  0.73305754     0.07600
N1112       N  0.31710286  0.67044886  0.70094382    -0.25400
N1113       N  0.21753091  0.74836940  0.72143090    -0.25000
N1114       N  0.32446058  0.67332474  0.79679455     0.02100
C1115       C  0.35654718  0.79218859  0.69037727     0.43400
C1116       C  0.23864877  0.77699923  0.81535001    -0.06200
N1117       N  0.21839007  0.67034197  0.72374359    -0.25000
H1118       H  0.17128576  0.77813124  0.72949064     0.07600
N1119       N  0.36548451  0.77486900  0.71271526    -0.46200
H1120       H  0.25299863  0.78240166  0.83314866     0.07600
C1121       C  0.20763243  0.63118901  0.80944615     0.43300
C1122       C  0.36811629  0.77856866  0.77783508    -0.05700
Co1123     Co  0.28524025  0.71244560  0.79778014     0.73800
N1124       N  0.19734349  0.77563297  0.78385795    -0.45900
C1125       C  0.35409048  0.62562073  0.69407361     0.43600
N1126       N  0.33315218  0.64984592  0.81557033    -0.45900
Co1127     Co  0.21938767  0.71061608  0.75173716     0.73900
C1128       C  0.19523161  0.64390090  0.72061294    -0.06200
C1129       C  0.32494854  0.77470050  0.68075415    -0.05800
N1130       N  0.34605308  0.67266617  0.77671385    -0.25300
N1131       N  0.23218172  0.77325824  0.68357922    -0.46100
H1132       H  0.30624609  0.63636672  0.66788315     0.07600
C1133       C  0.24009439  0.64777301  0.81798167    -0.06200
Cl1134     Cl  0.28192883  0.71095119  0.74924326    -0.49200
C1135       C  0.20655789  0.79333625  0.80580442     0.43300
H1136       H  0.39183918  0.64165552  0.76851391     0.07500
N1137       N  0.19801428  0.64795216  0.78701984    -0.45900
C1138       C  0.42168719  0.82049296  0.63927652     0.03800
C1139       C  0.44105688  0.84579091  0.65371995    -0.12300
C1140       C  0.43094655  0.85578469  0.67912334     0.01300
C1141       C  0.40175662  0.83956260  0.69044297    -0.10800
C1142       C  0.38156119  0.81506588  0.67611075     0.03800
C1143       C  0.39067913  0.80697946  0.65010854    -0.10300
H1144       H  0.46540341  0.85573260  0.64598155     0.09400
H1145       H  0.39540820  0.84504894  0.71079290     0.07000
H1146       H  0.37566087  0.78729960  0.63932636     0.06800
C1147       C  0.18019306  0.86396575  0.64242510     0.03800
C1148       C  0.19477171  0.83219940  0.65338975    -0.12300
C1149       C  0.18530991  0.82032981  0.67864564     0.01300
C1150       C  0.15865097  0.83807354  0.69185365    -0.10800
C1151       C  0.14240709  0.86826423  0.68094059     0.03800
C1152       C  0.15438571  0.88221793  0.65685420    -0.10300
H1153       H  0.21381136  0.81694295  0.64249616     0.09400
H1154       H  0.15060115  0.82854759  0.71096036     0.07000
H1155       H  0.14343098  0.90715421  0.64931251     0.06800
C1156       C  0.45353976  0.87904974  0.69513903     0.43200
N1157       N  0.49378838  0.91694205  0.70425102     0.02100
C1158       C  0.09724068  0.91921446  0.81585706    -0.05800
H1159       H  0.46525401  0.93472386  0.83456001     0.07500
C1160       C  0.47197240  0.55389853  0.78071844    -0.06200
Co1161     Co  0.03271852  0.89528860  0.75279173     0.74200
N1162       N  0.49590602  0.92420712  0.79997280    -0.25400
Co1163     Co  0.03341368  0.96462169  0.79845862     0.74100
C1164       C  0.45669599  0.54419052  0.80590910     0.43300
N1165       N  0.49511002  0.52462251  0.71859209     0.01700
N1166       N  0.49617843  0.50568743  0.79662452     0.01800
N1167       N  0.09711774  0.87539868  0.78511719    -0.46200
H1168       H  0.46468832  0.84534242  0.73235329     0.07500
N1169       N  0.49565048  0.89785523  0.78258993     0.02100
N1170       N  0.07139467  0.50407346  0.79590343     0.01800
C1171       C  0.11483354  0.53805939  0.80417024     0.43400
N1172       N  0.49446843  0.49794923  0.70150479    -0.24800
C1173       C  0.09643592  0.87189458  0.71925698    -0.05700
N1174       N  0.47047673  0.90861441  0.68613235    -0.45900
N1175       N  0.09658239  0.50942289  0.81304640    -0.46100
C1176       C  0.11278139  0.88452068  0.69486905     0.43200
N1177       N  0.07148162  0.89861203  0.78130221     0.02000
N1178       N  0.06951776  0.49713142  0.70029790    -0.24800
N1179       N  0.49416237  0.89363769  0.72403903    -0.25300
N1180       N  0.07096048  0.52278233  0.71812740     0.01700
H1181       H  0.10039452  0.48576089  0.66591455     0.07600
H1182       H  0.10452022  0.57309925  0.76719954     0.07600
N1183       N  0.07103219  0.92448444  0.79901016    -0.25400
N1184       N  0.49635766  0.52887573  0.77676159    -0.25000
N1185       N  0.06902591  0.91781472  0.70331586     0.02100
C1186       C  0.45458267  0.88444274  0.80923917     0.43400
C1187       C  0.46846611  0.50341111  0.68469218    -0.06200
N1188       N  0.07168285  0.52764757  0.77634475    -0.25000
H1189       H  0.46730910  0.57738730  0.76843098     0.07600
N1190       N  0.47120255  0.87362137  0.78732583    -0.46200
H1191       H  0.46208133  0.48617341  0.66831445     0.07600
C1192       C  0.11383854  0.53375260  0.69261984     0.43300
C1193       C  0.46930500  0.86895424  0.72019049    -0.05700
Co1194     Co  0.03148275  0.95746716  0.70176691     0.73800
N1195       N  0.47035647  0.54881336  0.71435892    -0.45900
C1196       C  0.11486742  0.88701649  0.80631961     0.43600
N1197       N  0.09417976  0.91290993  0.68604032    -0.45900
Co1198     Co  0.03353439  0.52677636  0.74734523     0.73900
C1199       C  0.09826676  0.55039608  0.77982665    -0.06200
C1200       C  0.47084112  0.91807850  0.81769143    -0.05800
N1201       N  0.06971138  0.89428108  0.72288890    -0.25300
N1202       N  0.47335388  0.51446851  0.81498780    -0.46100
H1203       H  0.10298680  0.93565891  0.83279791     0.07600
C1204       C  0.09530755  0.50214616  0.68301010    -0.06200
Cl1205     Cl  0.03256736  0.96101197  0.75010784    -0.49200
C1206       C  0.45263692  0.53716678  0.69318415     0.43300
H1207       H  0.10315991  0.84956928  0.73209307     0.07500
N1208       N  0.09693019  0.54540348  0.71414949    -0.45900
C1209       C  0.19158039  0.54316196  0.88379376    -0.04600
C1210       C  0.16751893  0.53155817  0.90320794    -0.01700
C1211       C  0.17915456  0.51357124  0.92617121     0.03200
C1212       C  0.21488263  0.51136552  0.93164990    -0.04600
C1213       C  0.23878590  0.52561844  0.91328018    -0.01700
C1214       C  0.22740358  0.53887249  0.88882210     0.03200
C1215       C  0.13080004  0.53826210  0.89987682     0.37900
C1216       C  0.27554448  0.52535169  0.91910193     0.37900
C1217       C  0.25285391  0.54550672  0.86832295     0.36300
C1218       C  0.15445896  0.49599832  0.94350063     0.36300
N1219       N  0.27319420  0.55053401  0.85200604    -0.38500
N1220       N  0.13483484  0.48186609  0.95733616    -0.38500
N1221       N  0.30487128  0.02538048  0.92358281    -0.38000
N1222       N  0.10148171  0.54359496  0.89731669    -0.38000
C1223       C  0.33865673  0.88414946  0.93265551    -0.04600
C1224       C  0.35624743  0.91084212  0.91790056    -0.01700
C1225       C  0.37056023  0.90252459  0.89327113     0.03200
C1226       C  0.37141880  0.86621338  0.88457357    -0.04600
C1227       C  0.35775682  0.83868413  0.90128463    -0.01700
C1228       C  0.33951507  0.84792887  0.92434053     0.03200
C1229       C  0.35917642  0.94727466  0.92807017     0.37900
C1230       C  0.36269674  0.80079069  0.89504689     0.37900
C1231       C  0.32081295  0.82043434  0.93899560     0.36300
C1232       C  0.38221801  0.93201104  0.87650062     0.36300
N1233       N  0.30585778  0.79848865  0.95066789    -0.38500
N1234       N  0.39142661  0.95571345  0.86327594    -0.38500
N1235       N  0.36671654  0.77058180  0.89009980    -0.38000
N1236       N  0.36203699  0.97607711  0.93649737    -0.38000
C1237       C  0.13380666  0.61109072  0.61549728    -0.04600
C1238       C  0.15598540  0.62488122  0.59569576    -0.01700
C1239       C  0.14266872  0.64741738  0.57560111     0.03200
C1240       C  0.10650020  0.65176595  0.57274040    -0.04600
C1241       C  0.08415036  0.63430687  0.59071096    -0.01700
C1242       C  0.09758662  0.61652641  0.61297778     0.03200
C1243       C  0.19235633  0.61511562  0.59562693     0.37900
C1244       C  0.04710951  0.63415025  0.58611916     0.37900
C1245       C  0.07378698  0.60580697  0.63371341     0.36300
C1246       C  0.16626545  0.66661387  0.55830527     0.36300
N1247       N  0.05463175  0.59740989  0.65014537    -0.38500
N1248       N  0.18525909  0.68200549  0.54466962    -0.38500
N1249       N  0.01762994  0.63347612  0.58229898    -0.38000
N1250       N  0.22122457  0.60679126  0.59555769    -0.38000
C1251       C  0.43670644  0.80467123  0.61469167    -0.04600
C1252       C  0.44938405  0.82748862  0.59438453    -0.01700
C1253       C  0.46869321  0.81293945  0.57336852     0.03200
C1254       C  0.47335358  0.77517183  0.57134611    -0.04600
C1255       C  0.45770872  0.75217139  0.59011005    -0.01700
C1256       C  0.44103669  0.76670175  0.61230960     0.03200
C1257       C  0.44243230  0.86601619  0.59499257     0.37900
C1258       C  0.45815879  0.71336389  0.58626140     0.37900
C1259       C  0.43023349  0.74228774  0.63322533     0.36300
C1260       C  0.48426118  0.83693198  0.55405546     0.36300
N1261       N  0.42175848  0.72265469  0.64983382    -0.38500
N1262       N  0.49662037  0.85606051  0.53860402    -0.38500
N1263       N  0.95779614  0.68245733  0.58299042    -0.38000
N1264       N  0.43684928  0.89674202  0.59549976    -0.38000
C1265       C  0.10689606  0.77836193  0.93043847    -0.04600
C1266       C  0.14313889  0.78224344  0.92791547    -0.01700
C1267       C  0.15719382  0.80147713  0.90628942     0.03200
C1268       C  0.13532211  0.81415801  0.88579746    -0.04600
C1269       C  0.09892262  0.81022061  0.88867029    -0.01700
C1270       C  0.08503618  0.79465719  0.91160746     0.03200
C1271       C  0.16598897  0.76654787  0.94753457     0.37900
C1272       C  0.07523346  0.81989941  0.86758495     0.37900
C1273       C  0.04792603  0.79570101  0.91600441     0.36300
C1274       C  0.19413384  0.80839184  0.90533159     0.36300
N1275       N  0.01843661  0.79696244  0.91974014    -0.38500
N1276       N  0.22359609  0.81389690  0.90460269    -0.38500
N1277       N  0.05611464  0.82754936  0.85093228    -0.38000
N1278       N  0.18419341  0.75441968  0.96336826    -0.38000
C1279       C  0.43939048  0.62229950  0.88430976    -0.04600
C1280       C  0.45255766  0.60020566  0.90492408    -0.01700
C1281       C  0.47176406  0.61560197  0.92570888     0.03200
C1282       C  0.47560817  0.65351191  0.92739072    -0.04600
C1283       C  0.45974205  0.67574184  0.90823383    -0.01700
C1284       C  0.44331205  0.66038750  0.88619526     0.03200
C1285       C  0.44592242  0.56158236  0.90504695     0.37900
C1286       C  0.45941526  0.71464271  0.91158413     0.37900
C1287       C  0.43211249  0.68418054  0.86502456     0.36300
C1288       C  0.48791780  0.59232662  0.94522008     0.36300
N1289       N  0.42324732  0.70334605  0.84824019    -0.38500
N1290       N  0.50081085  0.57364741  0.96072071    -0.38500
N1291       N  0.45837152  0.74563299  0.91436164    -0.38000
N1292       N  0.44053427  0.53080291  0.90513796    -0.38000
C1293       C  0.35011820  0.52436159  0.56690663    -0.04600
C1294       C  0.35366012  0.56168965  0.57143363    -0.01700
C1295       C  0.36739392  0.57380685  0.59545756     0.03200
C1296       C  0.37586848  0.54855347  0.61554184    -0.04600
C1297       C  0.37382192  0.51103683  0.61026643    -0.01700
C1298       C  0.36251354  0.49922518  0.58557330     0.03200
C1299       C  0.34235186  0.58753406  0.55165410     0.37900
C1300       C  0.38123399  0.48426060  0.63053872     0.37900
C1301       C  0.36318247  0.96102634  0.57935967     0.36300
C1302       C  0.37260163  0.61223299  0.59945359     0.36300
N1303       N  0.36438906  0.93062354  0.57429719    -0.38500
N1304       N  0.37666520  0.64288969  0.60263577    -0.38500
N1305       N  0.38712563  0.96277551  0.64657749    -0.38000
N1306       N  0.33347589  0.60813133  0.53580456    -0.38000
C1307       C  0.19240658  0.87855656  0.61626196    -0.04600
C1308       C  0.16848662  0.89170549  0.59716429    -0.01700
C1309       C  0.18039324  0.90930749  0.57408408     0.03200
C1310       C  0.21599129  0.90966568  0.56806280    -0.04600
C1311       C  0.23940891  0.89263774  0.58547956    -0.01700
C1312       C  0.22824715  0.87996068  0.61021654     0.03200
C1313       C  0.13159040  0.88645928  0.60070453     0.37900
C1314       C  0.27524447  0.88790607  0.57775002     0.35900
C1315       C  0.25424456  0.87063476  0.62972973     0.36300
C1316       C  0.15609218  0.92767086  0.55685980     0.36300
N1317       N  0.27520938  0.86340048  0.64514749    -0.38500
N1318       N  0.13673531  0.94238826  0.54311268    -0.38500
N1319       N  0.30359205  0.88341798  0.57128017    -0.38000
N1320       N  0.10215239  0.88218836  0.60347995    -0.38000
C1321       C  0.19210635  0.55747407  0.11514401    -0.04600
C1322       C  0.20582210  0.57821163  0.09400599    -0.01700
C1323       C  0.22315103  0.56112674  0.07299909     0.03200
C1324       C  0.22307086  0.52303184  0.07100764    -0.04600
C1325       C  0.20729133  0.50229527  0.09111253    -0.01700
C1326       C  0.19398040  0.51914652  0.11372587     0.03200
C1327       C  0.20215567  0.61721566  0.09367468     0.37900
C1328       C  0.20536974  0.96320992  0.08876393     0.37900
C1329       C  0.18458152  0.49656724  0.13608863     0.36300
C1330       C  0.24186154  0.58281493  0.05385538     0.36300
N1331       N  0.17726826  0.47845041  0.15388539    -0.38500
N1332       N  0.25671761  0.60015072  0.03856543    -0.38500
N1333       N  0.20377306  0.93210632  0.08680347    -0.38000
N1334       N  0.19944687  0.64836180  0.09351440    -0.38000
C1335       C  0.11243136  0.65523961  0.43440171    -0.04600
C1336       C  0.10331654  0.62020725  0.42612331    -0.01700
C1337       C  0.11900533  0.60540071  0.40361541     0.03200
C1338       C  0.13769623  0.62813332  0.38596351    -0.04600
C1339       C  0.14637296  0.66358896  0.39459991    -0.01700
C1340       C  0.13761641  0.67461277  0.42017326     0.03200
C1341       C  0.07696185  0.59981263  0.44008185     0.37900
C1342       C  0.16033204  0.69071700  0.37682284     0.37900
C1343       C  0.15167540  0.70781419  0.43087649     0.36300
C1344       C  0.11616430  0.56680153  0.39919910     0.36300
N1345       N  0.16281565  0.73410670  0.43969087    -0.38500
N1346       N  0.11391097  0.53599521  0.39575947    -0.38500
N1347       N  0.17101999  0.71285020  0.36283295    -0.38000
N1348       N  0.05584274  0.58352577  0.45109973    -0.38000
C1349       C  0.39129112  0.55803125  0.38607317    -0.04600
C1350       C  0.38701788  0.51991086  0.38729399    -0.01700
C1351       C  0.37133407  0.50350720  0.40936223     0.03200
C1352       C  0.35654200  0.52494426  0.42928304    -0.04600
C1353       C  0.36151892  0.56287996  0.42851366    -0.01700
C1354       C  0.37983826  0.57913083  0.40748883     0.03200
C1355       C  0.39645022  0.49734588  0.36517992     0.37900
C1356       C  0.34706239  0.58545956  0.44898193     0.37900
C1357       C  0.38672086  0.61768860  0.40788382     0.36300
C1358       C  0.36946655  0.96436105  0.41122827     0.36300
N1359       N  0.39216852  0.64844203  0.40826221    -0.38500
N1360       N  0.36782225  0.93317726  0.41273551    -0.38500
N1361       N  0.33576016  0.60352048  0.46536602    -0.38000
N1362       N  0.40386774  0.47926854  0.34757475    -0.38000
C1363       C  0.13493314  0.80547006  0.11574629    -0.04600
C1364       C  0.11649960  0.82844910  0.09818887    -0.01700
C1365       C  0.09859758  0.81364579  0.07662156     0.03200
C1366       C  0.10508485  0.77766524  0.06895300    -0.04600
C1367       C  0.12916504  0.75693048  0.08341945    -0.01700
C1368       C  0.14059144  0.76897732  0.10814503     0.03200
C1369       C  0.11674828  0.86736448  0.10160627     0.37900
C1370       C  0.14005185  0.72199734  0.07357966     0.37900
C1371       C  0.15493663  0.74248119  0.12628289     0.36300
C1372       C  0.07267711  0.83512403  0.06306650     0.36300
N1373       N  0.16598890  0.72111789  0.14074995    -0.38500
N1374       N  0.05182503  0.85231768  0.05247140    -0.38500
N1375       N  0.14834447  0.69429702  0.06525469    -0.38000
N1376       N  0.11735015  0.89842452  0.10417864    -0.38000
C1377       C  0.44366478  0.62912398  0.11343881    -0.04600
C1378       C  0.45395261  0.60581880  0.09290337    -0.01700
C1379       C  0.46674414  0.62036961  0.06911941     0.03200
C1380       C  0.46725952  0.65816860  0.06514595    -0.04600
C1381       C  0.45272777  0.68110940  0.08421125    -0.01700
C1382       C  0.44288075  0.66701616  0.10879806     0.03200
C1383       C  0.45169232  0.56690584  0.09623327     0.37900
C1384       C  0.45016753  0.71971217  0.07905009     0.37900
C1385       C  0.43458746  0.69204760  0.12976704     0.36300
C1386       C  0.98066613  0.59655417  0.04920694     0.36300
N1387       N  0.42807206  0.71208492  0.14642804    -0.38500
N1388       N  0.99164521  0.57759410  0.03324320    -0.38500
N1389       N  0.44813136  0.75044511  0.07490408    -0.38000
N1390       N  0.44990610  0.53586126  0.09888385    -0.38000
C1391       C  0.21567614  0.90544176  0.42877919    -0.04600
C1392       C  0.19236217  0.92433512  0.41241665    -0.01700
C1393       C  0.18034423  0.90838592  0.38908822     0.03200
C1394       C  0.18604058  0.87089129  0.38437677    -0.04600
C1395       C  0.20500258  0.85063659  0.40330602    -0.01700
C1396       C  0.22178983  0.86833359  0.42421688     0.03200
C1397       C  0.18241979  0.96111283  0.41886235     0.37900
C1398       C  0.20737794  0.81157045  0.40148776     0.37900
C1399       C  0.24563630  0.84829403  0.44086515     0.36300
C1400       C  0.16500509  0.93190685  0.36928951     0.36300
N1401       N  0.26448090  0.83214540  0.45417276    -0.38500
N1402       N  0.15296069  0.95094363  0.35360882    -0.38500
N1403       N  0.20945185  0.78044222  0.39996043    -0.38000
N1404       N  0.17476705  0.99045171  0.42406217    -0.38000
C1405       C  0.38550878  0.86147181  0.11483220    -0.04600
C1406       C  0.34868024  0.86158994  0.11361777    -0.01700
C1407       C  0.33154876  0.87492216  0.09114334     0.03200
C1408       C  0.35038583  0.89187034  0.07078415    -0.04600
C1409       C  0.38691730  0.89246882  0.07200388    -0.01700
C1410       C  0.40436480  0.87549517  0.09315882     0.03200
C1411       C  0.32772315  0.84960909  0.13573385     0.37900
C1412       C  0.40659116  0.91095058  0.05168914     0.37900
C1413       C  0.44167184  0.87151075  0.09212904     0.36300
C1414       C  0.29415199  0.87174630  0.08911366     0.36300
N1415       N  0.47140106  0.86803807  0.09116190    -0.38500
N1416       N  0.26440243  0.86914654  0.08741328    -0.38500
N1417       N  0.42226951  0.92554918  0.03540267    -0.38000
N1418       N  0.31073642  0.83986228  0.15313331    -0.38000
C1419       C  0.45013963  0.80200526  0.38460707    -0.04600
C1420       C  0.45304485  0.76418090  0.38896755    -0.01700
C1421       C  0.46427909  0.75076102  0.41343182     0.03200
C1422       C  0.47624513  0.77471157  0.43290016    -0.04600
C1423       C  0.47279038  0.81236319  0.42897864    -0.01700
C1424       C  0.45870824  0.82594185  0.40525169     0.03200
C1425       C  0.44665334  0.73873782  0.36788777     0.37900
C1426       C  0.98482372  0.83712346  0.44897883     0.37900
C1427       C  0.45291144  0.86450576  0.40225119     0.36300
C1428       C  0.46545224  0.71198142  0.41814628     0.36300
N1429       N  0.44826139  0.89527101  0.39988568    -0.38500
N1430       N  0.46669056  0.68113093  0.42197118    -0.38500
N1431       N  0.99438726  0.85675756  0.46502915    -0.38000
N1432       N  0.44154938  0.71838834  0.35114940    -0.38000
C1433       C  0.93814186  0.31602671  0.35848901     0.03800
C1434       C  0.95726996  0.34210657  0.34434719    -0.12300
C1435       C  0.94640742  0.35355068  0.31922148     0.01300
C1436       C  0.91768788  0.33682643  0.30761616    -0.10800
C1437       C  0.89897033  0.31032432  0.32126169     0.03800
C1438       C  0.90823147  0.30153561  0.34707937    -0.10300
H1439       H  0.98051948  0.35339859  0.35287306     0.09400
H1440       H  0.90999193  0.34403751  0.28781384     0.07000
H1441       H  0.89276820  0.28240718  0.35818156     0.06800
C1442       C  0.90379788  0.34911278  0.13938884     0.03800
C1443       C  0.92835342  0.37156213  0.15175285    -0.12300
C1444       C  0.93911505  0.36430493  0.17763934     0.01300
C1445       C  0.92345910  0.33610365  0.19175300    -0.10800
C1446       C  0.89965214  0.31319177  0.17950353     0.03800
C1447       C  0.89261987  0.31778939  0.15268983    -0.10300
H1448       H  0.93710085  0.39612158  0.14212966     0.09400
H1449       H  0.92896669  0.33271603  0.21252664     0.07000
H1450       H  0.87454943  0.29973051  0.14317740     0.06800
C1451       C  0.67470552  0.35384013  0.35899508     0.03800
C1452       C  0.64295193  0.36334810  0.34732200    -0.12300
C1453       C  0.63740119  0.35733644  0.32049776     0.01300
C1454       C  0.66046481  0.33523780  0.30655706    -0.10800
C1455       C  0.68952289  0.32055490  0.31915724     0.03800
C1456       C  0.69751881  0.33155898  0.34473849    -0.10300
H1457       H  0.62444302  0.37931212  0.35820014     0.09400
H1458       H  0.65618363  0.33012093  0.28585214     0.07000
H1459       H  0.72250975  0.32427719  0.35278451     0.06800
C1460       C  0.93396537  0.11433277  0.13979115     0.03800
C1461       C  0.95611415  0.09101363  0.15381343    -0.12300
C1462       C  0.94732583  0.07912224  0.17928260     0.01300
C1463       C  0.91760608  0.09316681  0.19146790    -0.10800
C1464       C  0.89622830  0.11751032  0.17791522     0.03800
C1465       C  0.90328267  0.12576938  0.15161940    -0.10300
H1466       H  0.98001255  0.08220863  0.14482494     0.09400
H1467       H  0.91157913  0.08588785  0.21162420     0.07000
H1468       H  0.88567679  0.14279767  0.14053435     0.06800
C1469       C  0.96453319  0.38303636  0.30509231     0.43200
N1470       N  0.49890337  0.42714249  0.29689092     0.02100
C1471       C  0.50017770  0.03417319  0.18398178    -0.05800
H1472       H  0.50906825  0.40013463  0.16428333     0.07500
C1473       C  0.62643935  0.40026330  0.22039752    -0.06200
Co1474     Co  0.97792274  0.46805083  0.24831085     0.74200
N1475       N  0.50344007  0.42924140  0.20076644    -0.25400
Co1476     Co  0.54348764  0.46719928  0.20182413     0.74100
C1477       C  0.61584774  0.38243526  0.19621460     0.43300
N1478       N  0.60017978  0.42597015  0.28130989     0.01700
N1479       N  0.58135834  0.42672903  0.20403197     0.01800
N1480       N  0.95812012  0.03387443  0.21491945    -0.46200
H1481       H  0.93162984  0.39596559  0.26829818     0.07500
N1482       N  0.97905478  0.42916862  0.21895200     0.02100
N1483       N  0.58287599  0.50592633  0.20364472     0.01800
C1484       C  0.61846857  0.04885877  0.19465167     0.43400
N1485       N  0.57584770  0.42608304  0.29945335    -0.24800
C1486       C  0.95495701  0.03359036  0.28145239    -0.05700
N1487       N  0.49266396  0.40078381  0.31402746    -0.45900
N1488       N  0.59071603  0.03056118  0.18550978    -0.46100
C1489       C  0.96455341  0.04913572  0.30665606     0.43200
N1490       N  0.98103726  0.50793385  0.21923005     0.02000
N1491       N  0.57633474  0.50511505  0.29984183    -0.24800
N1492       N  0.97631779  0.42809073  0.27744171    -0.25300
N1493       N  0.60110084  0.50539548  0.28200814     0.01700
H1494       H  0.56593226  0.03832262  0.33361223     0.07600
H1495       H  0.65012884  0.03755835  0.23211126     0.07600
N1496       N  0.50578615  0.50739980  0.20135932    -0.25400
N1497       N  0.60382458  0.42716073  0.22354950    -0.25000
N1498       N  0.49944721  0.50590128  0.29755953     0.02100
C1499       C  0.96245043  0.38921403  0.19145152     0.43400
C1500       C  0.58187699  0.39859068  0.31625776    -0.06200
N1501       N  0.60471975  0.50598050  0.22357082    -0.25000
H1502       H  0.64824786  0.39494977  0.23314321     0.07600
N1503       N  0.95407874  0.40570027  0.21410004    -0.46200
H1504       H  0.56691141  0.39244245  0.33368714     0.07600
C1505       C  0.61323079  0.05000799  0.30716303     0.43300
C1506       C  0.95356740  0.40123028  0.28087716    -0.05700
Co1507     Co  0.53762857  0.46602835  0.29912295     0.73800
N1508       N  0.62279271  0.39951661  0.28464375    -0.45900
C1509       C  0.96855158  0.05180231  0.19312418     0.43600
N1510       N  0.49195591  0.03011636  0.31583526    -0.45900
Co1511     Co  0.60310246  0.46623857  0.25268613     0.73900
C1512       C  0.62790640  0.03236156  0.21978117    -0.06200
C1513       C  0.49499878  0.40497563  0.18229394    -0.05800
N1514       N  0.97763416  0.50690121  0.27762599    -0.25300
N1515       N  0.58784626  0.40058003  0.18694491    -0.46100
H1516       H  0.51565157  0.03956381  0.16669200     0.07600
C1517       C  0.58179841  0.03224983  0.31670677    -0.06200
Cl1518     Cl  0.54050555  0.46686790  0.25045956    -0.49200
C1519       C  0.61283580  0.38053541  0.30604666     0.43300
H1520       H  0.93281529  0.03943911  0.26912879     0.07500
N1521       N  0.62381867  0.03160777  0.28577491    -0.45900
C1522       C  0.64655560  0.31903646  0.14217866     0.03800
C1523       C  0.67852109  0.30812107  0.15295195    -0.12300
C1524       C  0.68735167  0.31678852  0.17883275     0.01300
C1525       C  0.66636348  0.34067573  0.19286950    -0.10800
C1526       C  0.63575690  0.35448270  0.18189969     0.03800
C1527       C  0.62506226  0.34193945  0.15722210    -0.10300
H1528       H  0.69632597  0.29206776  0.14149119     0.09400
H1529       H  0.67372944  0.34808568  0.21257621     0.07000
H1530       H  0.60001475  0.35016184  0.14978888     0.06800
C1531       C  0.90453379  0.07577314  0.36144107     0.03800
C1532       C  0.88376760  0.10144219  0.34820253    -0.12300
C1533       C  0.89162667  0.11210739  0.32237536     0.01300
C1534       C  0.91994588  0.09666794  0.30961039    -0.10800
C1535       C  0.94116579  0.07157581  0.32254451     0.03800
C1536       C  0.93460371  0.06282676  0.34895851    -0.10300
H1537       H  0.85992349  0.11074133  0.35709391     0.09400
H1538       H  0.92450293  0.10291352  0.28903772     0.07000
H1539       H  0.95054459  0.04277141  0.35878073     0.06800
C1540       C  0.64680700  0.11532481  0.35869345     0.03800
C1541       C  0.67787555  0.12598243  0.34647242    -0.12300
C1542       C  0.68467202  0.11714757  0.32026327     0.01300
C1543       C  0.66338348  0.09223354  0.30748982    -0.10800
C1544       C  0.63358820  0.07892302  0.31984165     0.03800
C1545       C  0.62411194  0.09279083  0.34444616    -0.10300
H1546       H  0.69681225  0.14167588  0.35707542     0.09400
H1547       H  0.66959529  0.08364649  0.28774468     0.07000
H1548       H  0.59927128  0.08548891  0.35261863     0.06800
C1549       C  0.67860626  0.07545887  0.13955786     0.03800
C1550       C  0.69851708  0.10214691  0.15217339    -0.12300
C1551       C  0.68985774  0.11403523  0.17742261     0.01300
C1552       C  0.66239456  0.09759825  0.19087943    -0.10800
C1553       C  0.64190144  0.07145595  0.17857250     0.03800
C1554       C  0.64862277  0.06244140  0.15230300    -0.10300
H1555       H  0.72234270  0.11167690  0.14333440     0.09400
H1556       H  0.65769372  0.10430048  0.21128805     0.07000
H1557       H  0.63276409  0.04220935  0.14283822     0.06800
C1558       C  0.87665726  0.29035426  0.19563499     0.43200
N1559       N  0.83195301  0.25746982  0.20331952     0.02100
C1560       C  0.72862794  0.26282251  0.31474792    -0.05800
H1561       H  0.85752661  0.24158518  0.33431747     0.07500
C1562       C  0.85257377  0.12420779  0.28163864    -0.06200
Co1563     Co  0.79372085  0.28181579  0.25111794     0.74200
N1564       N  0.82848951  0.25252063  0.29900439    -0.25400
Co1565     Co  0.79037794  0.21315800  0.29780791     0.74100
C1566       C  0.86725104  0.13415756  0.30692570     0.43300
N1567       N  0.82850686  0.15156993  0.21845787     0.01700
N1568       N  0.82733797  0.17188937  0.29688820     0.01800
N1569       N  0.73112877  0.30627573  0.28325867    -0.46200
H1570       H  0.86649765  0.32505567  0.23220705     0.07500
N1571       N  0.82999918  0.27849212  0.28115706     0.02100
N1572       N  0.75253688  0.17331271  0.29579736     0.01800
C1573       C  0.71318782  0.13503265  0.30607464     0.43400
N1574       N  0.82842364  0.17762845  0.20064404    -0.24800
C1575       C  0.73366511  0.31019691  0.21643765    -0.05700
N1576       N  0.85732706  0.26287416  0.18621481    -0.45900
N1577       N  0.72911992  0.16559169  0.31396966    -0.46100
C1578       C  0.71754411  0.29976276  0.19170973     0.43200
N1579       N  0.75461914  0.28074800  0.27937225     0.02000
N1580       N  0.75399658  0.17919021  0.20009950    -0.24800
N1581       N  0.83267503  0.28067531  0.22288895    -0.25300
N1582       N  0.75314634  0.15366204  0.21840266     0.01700
H1583       H  0.72559122  0.18644088  0.16382564     0.07600
H1584       H  0.72437735  0.10059874  0.26948260     0.07600
N1585       N  0.75366904  0.25491620  0.29745300    -0.25400
N1586       N  0.82785908  0.14880370  0.27719047    -0.25000
N1587       N  0.75658354  0.26090104  0.20187377     0.02100
C1588       C  0.87028975  0.29124303  0.30835469     0.43400
C1589       C  0.85262695  0.17083352  0.18269535    -0.06200
N1590       N  0.75307745  0.14942635  0.27666738    -0.25000
H1591       H  0.85785792  0.10085378  0.26960788     0.07600
N1592       N  0.85469664  0.30229070  0.28598658    -0.46200
H1593       H  0.85782356  0.18725263  0.16547545     0.07600
C1594       C  0.71306940  0.13861485  0.19159225     0.43300
C1595       C  0.86011595  0.30233995  0.21984818    -0.05700
Co1596     Co  0.79255747  0.21894452  0.20092638     0.73800
N1597       N  0.85207166  0.12640363  0.21362259    -0.45900
C1598       C  0.71340580  0.29652582  0.30500466     0.43600
N1599       N  0.73302456  0.26890152  0.18380020    -0.45900
Co1600     Co  0.79071932  0.15034634  0.24762114     0.73900
C1601       C  0.72882129  0.12437684  0.28125186    -0.06200
C1602       C  0.85305824  0.25814996  0.31704750    -0.05800
N1603       N  0.75750118  0.28471407  0.22103079    -0.25300
N1604       N  0.85010428  0.16362373  0.31550807    -0.46100
H1605       H  0.72273171  0.24764100  0.33241739     0.07600
C1606       C  0.72981804  0.17164595  0.18195142    -0.06200
Cl1607     Cl  0.79171107  0.21605367  0.24937778    -0.49200
C1608       C  0.86811543  0.13685964  0.19124640     0.43300
H1609       H  0.72916402  0.33364497  0.22853870     0.07500
N1610       N  0.72920412  0.12893179  0.21400112    -0.45900
N1611       N  0.77977811  0.47060604  0.53693805    -0.35900
N1612       N  0.82361760  0.50463166  0.49731304    -0.56500
N1613       N  0.78496753  0.46581391  0.45747796    -0.35900
N1614       N  0.73835186  0.43538400  0.49752273    -0.56500
C1615       C  0.79625423  0.49623921  0.55092305     0.27700
C1616       C  0.75196696  0.46016469  0.55115269     0.27700
C1617       C  0.80391933  0.48886781  0.44236985     0.27700
C1618       C  0.75999819  0.45139787  0.44206405     0.27700
C1619       C  0.84233921  0.01185482  0.51899188     0.36300
C1620       C  0.84475938  0.01026963  0.47664121     0.36300
C1621       C  0.72461482  0.41922986  0.51908267     0.36300
C1622       C  0.72646138  0.41713947  0.47649207     0.36300
C1623       C  0.77858058  0.50237656  0.57420921    -0.21200
C1624       C  0.75061729  0.47947408  0.57437435    -0.21200
C1625       C  0.79074887  0.48915390  0.41705936    -0.21200
C1626       C  0.76389192  0.46493497  0.41665677    -0.21200
C1627       C  0.87550474  0.02249609  0.51216942    -0.22200
C1628       C  0.87705135  0.02150645  0.48519416    -0.22200
C1629       C  0.70337343  0.39097136  0.51176257    -0.22200
C1630       C  0.70384831  0.39019115  0.48477930    -0.22200
C1631       C  0.82888688  0.01101754  0.54464777    -0.17600
C1632       C  0.73022638  0.43074649  0.54515428    -0.17600
C1633       C  0.73489438  0.42512973  0.44992378    -0.17600
C1634       C  0.83436972  0.50759316  0.45017231    -0.17600
H1635       H  0.78575019  0.52062458  0.58983175     0.15300
H1636       H  0.73194037  0.47655912  0.59010053     0.15300
H1637       H  0.80016763  0.50435286  0.40027654     0.15300
H1638       H  0.74936462  0.45810534  0.39925409     0.15300
H1639       H  0.89619159  0.03052181  0.52522166     0.13600
H1640       H  0.89924378  0.02851933  0.47323627     0.13600
H1641       H  0.68856252  0.37319149  0.52443349     0.13600
H1642       H  0.68923738  0.37165963  0.47275155     0.13600
H1643       H  0.78898666  0.45838313  0.52002898     0.26900
H1644       H  0.78997300  0.45859034  0.47679169     0.26900
N1645       N  0.53667664  0.21822623  0.03802905    -0.35900
N1646       N  0.00013784  0.17770555  0.99689064    -0.56500
N1647       N  0.54250342  0.21403135  0.95841775    -0.35900
N1648       N  0.58191698  0.25110574  0.99971536    -0.56500
C1649       C  0.51912059  0.19317613  0.05218367     0.27700
C1650       C  0.56131570  0.23219368  0.05398933     0.27700
C1651       C  0.52746178  0.18807824  0.94356687     0.27700
C1652       C  0.57044327  0.22637611  0.94511171     0.27700
C1653       C  0.97913442  0.17094307  0.01748742     0.36300
C1654       C  0.98214332  0.16896337  0.97510533     0.36300
C1655       C  0.59152427  0.27053930  0.02090456     0.36300
C1656       C  0.59375908  0.26910792  0.97837736     0.36300
C1657       C  0.53270132  0.19117557  0.07737057    -0.21200
C1658       C  0.55861804  0.21624471  0.07870867    -0.21200
C1659       C  0.54616041  0.18380795  0.92056462    -0.21200
C1660       C  0.57329733  0.20795557  0.92153926    -0.21200
C1661       C  0.94771706  0.15745998  0.00886162    -0.22200
C1662       C  0.94960981  0.15622937  0.98189151    -0.22200
C1663       C  0.61050278  0.30046827  0.01300284    -0.22200
C1664       C  0.61110022  0.30009435  0.98603793    -0.22200
C1665       C  0.98907760  0.17446979  0.04397119    -0.17600
C1666       C  0.58487042  0.26024827  0.04722853    -0.17600
C1667       C  0.59084858  0.25668878  0.95225982    -0.17600
C1668       C  0.99577877  0.17038991  0.94940343    -0.17600
H1669       H  0.52412640  0.17418846  0.09350690     0.15300
H1670       H  0.57318011  0.22211339  0.09628503     0.15300
H1671       H  0.54041281  0.16571605  0.90451790     0.15300
H1672       H  0.59244979  0.21221734  0.90630989     0.15300
H1673       H  0.92593083  0.14904020  0.02077741     0.13600
H1674       H  0.92953554  0.14671428  0.96882626     0.13600
H1675       H  0.62268557  0.32058137  0.02522446     0.13600
H1676       H  0.62360673  0.31999366  0.97358968     0.13600
H1677       H  0.53054976  0.22689625  0.01920136     0.26900
H1678       H  0.53262105  0.22506539  0.97550828     0.26900
N1679       N  0.54466471  0.21656007  0.46315586    -0.35900
N1680       N  0.50433270  0.25499532  0.50268600    -0.56500
N1681       N  0.54324419  0.21642569  0.54281345    -0.35900
N1682       N  0.58623640  0.18137838  0.50314638    -0.56500
C1683       C  0.52843627  0.24204639  0.44849662     0.27700
C1684       C  0.57049469  0.20279797  0.44831719     0.27700
C1685       C  0.52660550  0.24166424  0.55725232     0.27700
C1686       C  0.56981899  0.20358910  0.55745945     0.27700
C1687       C  0.98506784  0.26237886  0.48119050     0.36300
C1688       C  0.98413992  0.26193473  0.52368636     0.36300
C1689       C  0.59735444  0.16264709  0.48206954     0.36300
C1690       C  0.59638838  0.16252559  0.52460869     0.36300
C1691       C  0.54421591  0.24476310  0.42412729    -0.21200
C1692       C  0.57008581  0.21955761  0.42375523    -0.21200
C1693       C  0.54289827  0.24500122  0.58140046    -0.21200
C1694       C  0.57017703  0.22098501  0.58152775    -0.21200
C1695       C  0.95257706  0.27450708  0.48848092    -0.22200
C1696       C  0.95196604  0.27420102  0.51551689    -0.22200
C1697       C  0.61558180  0.13229437  0.49019311    -0.22200
C1698       C  0.61428463  0.13176570  0.51713690    -0.22200
C1699       C  0.99731981  0.25989487  0.45518355    -0.17600
C1700       C  0.59265999  0.17380737  0.45570190    -0.17600
C1701       C  0.59126537  0.17387817  0.55078306    -0.17600
C1702       C  0.99539126  0.25933520  0.55002638    -0.17600
H1703       H  0.53688174  0.26204212  0.40779168     0.15300
H1704       H  0.58590730  0.21403461  0.40677787     0.15300
H1705       H  0.53541592  0.26234443  0.59747691     0.15300
H1706       H  0.58773778  0.21613574  0.59774972     0.15300
H1707       H  0.93164591  0.28285714  0.47567362     0.13600
H1708       H  0.93045080  0.28231552  0.52774289     0.13600
H1709       H  0.62848647  0.11250924  0.47809140     0.13600
H1710       H  0.62576467  0.11132825  0.52971214     0.13600
H1711       H  0.53671279  0.20703755  0.48142759     0.26900
H1712       H  0.53507625  0.20619086  0.52489363     0.26900
N1713       N  0.77332970  0.44383716  0.96298196    -0.35900
N1714       N  0.81643554  0.40893153  0.00213126    -0.56500
N1715       N  0.78378433  0.45472629  0.04142848    -0.35900
N1716       N  0.74066749  0.48974708  0.00188615    -0.56500
C1717       C  0.78705439  0.41672324  0.94862441     0.27700
C1718       C  0.74753226  0.45853155  0.94848150     0.27700
C1719       C  0.81062013  0.44084830  0.05543154     0.27700
C1720       C  0.77053865  0.48253766  0.05548294     0.27700
C1721       C  0.82829007  0.39071147  0.98110247     0.36300
C1722       C  0.83326095  0.39567972  0.02328745     0.36300
C1723       C  0.72424239  0.00311788  0.98049727     0.36300
C1724       C  0.72831044  0.00764395  0.02291258     0.36300
C1725       C  0.76966629  0.41397888  0.92491047    -0.21200
C1726       C  0.74459948  0.44020661  0.92487032    -0.21200
C1727       C  0.81437776  0.46011221  0.07855658    -0.21200
C1728       C  0.78915999  0.48625962  0.07860768    -0.21200
C1729       C  0.85290713  0.36564632  0.98884408    -0.22200
C1730       C  0.85519803  0.36791901  0.01571775    -0.22200
C1731       C  0.70156341  0.03018435  0.98792490    -0.22200
C1732       C  0.70308180  0.03199986  0.01486740    -0.22200
C1733       C  0.81670093  0.39619415  0.95513254    -0.17600
C1734       C  0.72857708  0.99012940  0.95460436    -0.17600
C1735       C  0.74112442  0.00386695  0.04889329    -0.17600
C1736       C  0.83094530  0.41011450  0.04889180    -0.17600
H1737       H  0.77490031  0.39530188  0.90911231     0.15300
H1738       H  0.72673731  0.44578867  0.90895792     0.15300
H1739       H  0.83328476  0.45565045  0.09394028     0.15300
H1740       H  0.78495786  0.50582507  0.09400529     0.15300
H1741       H  0.86724531  0.34714863  0.97659856     0.13600
H1742       H  0.87200359  0.35169647  0.02804635     0.13600
H1743       H  0.68496872  0.04642523  0.97545898     0.13600
H1744       H  0.68797693  0.05007929  0.02690754     0.13600
H1745       H  0.78304984  0.45387197  0.98045448     0.26900
H1746       H  0.77365964  0.44430609  0.02419532     0.26900
C1747       C  0.88403513  0.35733412  0.85747877     0.03800
C1748       C  0.86411511  0.33474361  0.84140147    -0.12300
C1749       C  0.87559362  0.32495441  0.81635378     0.01300
C1750       C  0.90553870  0.34104894  0.80606096    -0.10800
C1751       C  0.92470398  0.36554846  0.82109713     0.03800
C1752       C  0.91485526  0.37209808  0.84721487    -0.10300
H1753       H  0.83979358  0.32412388  0.84866140     0.09400
H1754       H  0.91377080  0.33491681  0.78625028     0.07000
H1755       H  0.93104265  0.38890738  0.85944183     0.06800
C1756       C  0.92453844  0.10556423  0.85988531     0.03800
C1757       C  0.89394429  0.11902480  0.84812539    -0.12300
C1758       C  0.88527951  0.10947356  0.82224811     0.01300
C1759       C  0.90509393  0.08341046  0.80924540    -0.10800
C1760       C  0.93387768  0.06766570  0.82137157     0.03800
C1761       C  0.94384775  0.07917686  0.84641704    -0.10300
H1762       H  0.87885222  0.13948639  0.85804265     0.09400
H1763       H  0.89900786  0.07651495  0.78907847     0.07000
H1764       H  0.96811067  0.06954858  0.85452610     0.06800
C1765       C  0.67973651  0.05861054  0.85798248     0.03800
C1766       C  0.69560115  0.08973337  0.84743724    -0.12300
C1767       C  0.68779241  0.10168370  0.82193453     0.01300
C1768       C  0.66117356  0.08477947  0.80791511    -0.10800
C1769       C  0.64377190  0.05488600  0.81855989     0.03800
C1770       C  0.65415091  0.04107033  0.84311291    -0.10300
H1771       H  0.71479564  0.10401457  0.85885738     0.09400
H1772       H  0.65442753  0.09460968  0.78849349     0.07000
H1773       H  0.64237355  0.01653628  0.85062584     0.06800
C1774       C  0.65011252  0.32858161  0.86054130     0.03800
C1775       C  0.63510045  0.35874438  0.84797697    -0.12300
C1776       C  0.63949332  0.36413880  0.82088088     0.01300
C1777       C  0.66347885  0.34304632  0.80720927    -0.10800
C1778       C  0.68259375  0.31640873  0.82045669     0.03800
C1779       C  0.67504643  0.30843577  0.84681540    -0.10300
H1780       H  0.61649965  0.37509032  0.85850115     0.09400
H1781       H  0.66681822  0.34692967  0.78621336     0.07000
H1782       H  0.68655675  0.28470799  0.85584929     0.06800
C1783       C  0.64851888  0.09478049  0.64006043     0.03800
C1784       C  0.67365318  0.11395488  0.65426288    -0.12300
C1785       C  0.68156195  0.10430247  0.68022495     0.01300
C1786       C  0.66305886  0.07641296  0.69249519    -0.10800
C1787       C  0.63870967  0.05644206  0.67833050     0.03800
C1788       C  0.63345086  0.06394960  0.65160558    -0.10300
H1789       H  0.68489565  0.13832648  0.64597962     0.09400
H1790       H  0.66668146  0.07109414  0.71330677     0.07000
H1791       H  0.61425580  0.04874690  0.64079787     0.06800
C1792       C  0.88600486  0.06115765  0.64216122     0.03800
C1793       C  0.91593491  0.04775458  0.65412908    -0.12300
C1794       C  0.92390755  0.05631743  0.68016413     0.01300
C1795       C  0.90371487  0.08195306  0.69342103    -0.10800
C1796       C  0.87440374  0.09707579  0.68112322     0.03800
C1797       C  0.86501223  0.08536608  0.65594735    -0.10300
H1798       H  0.93261986  0.02983223  0.64316311     0.09400
H1799       H  0.91042050  0.08959868  0.71330325     0.07000
H1800       H  0.84163926  0.09537655  0.64673895     0.06800
C1801       C  0.85688745  0.29687173  0.80166807     0.43200
N1802       N  0.82313663  0.25211312  0.79437818     0.02100
C1803       C  0.82235687  0.14285118  0.68456756    -0.05800
H1804       H  0.81061807  0.27974138  0.66283257     0.07500
C1805       C  0.69345251  0.27345808  0.71702337    -0.06200
Co1806     Co  0.84451279  0.21107805  0.74677347     0.74200
N1807       N  0.81757725  0.24911337  0.69887626    -0.25400
Co1808     Co  0.77865664  0.20971118  0.70066757     0.74100
C1809       C  0.70310137  0.28995787  0.69194320     0.43300
N1810       N  0.72161162  0.25113502  0.77966572     0.01700
N1811       N  0.73985905  0.24871094  0.70182228     0.01800
N1812       N  0.86497445  0.14457832  0.71506480    -0.46200
H1813       H  0.89006193  0.28396117  0.76523532     0.07500
N1814       N  0.84183055  0.24981455  0.71711492     0.02100
N1815       N  0.74012639  0.17023572  0.70374127     0.01800
C1816       C  0.70455045  0.12730813  0.69578086     0.43400
N1817       N  0.74608403  0.25129846  0.79776019    -0.24800
C1818       C  0.86966886  0.14691388  0.78088265    -0.05700
N1819       N  0.82907430  0.27875794  0.81097919    -0.45900
N1820       N  0.73220412  0.14537959  0.68611405    -0.46100
C1821       C  0.86107629  0.13164483  0.80650893     0.43200
N1822       N  0.84212329  0.17077485  0.71856228     0.02000
N1823       N  0.74671298  0.17319342  0.79970416    -0.24800
N1824       N  0.84569600  0.25131649  0.77495545    -0.25300
N1825       N  0.72182795  0.17263625  0.78195015     0.01700
H1826       H  0.75544434  0.14255859  0.83537253     0.07600
H1827       H  0.67302168  0.13894521  0.73305530     0.07600
N1828       N  0.81710404  0.17045151  0.70094209    -0.25400
N1829       N  0.71752894  0.24836831  0.72142877    -0.25000
N1830       N  0.82446111  0.17332506  0.79679208     0.02100
C1831       C  0.85654671  0.29219179  0.69037572     0.43400
C1832       C  0.73864577  0.27699687  0.81534851    -0.06200
N1833       N  0.71839050  0.17034065  0.72374121    -0.25000
H1834       H  0.67128287  0.27812897  0.72948824     0.07600
N1835       N  0.86548338  0.27487264  0.71271405    -0.46200
H1836       H  0.75299556  0.28239982  0.83314711     0.07600
C1837       C  0.70763392  0.13118429  0.80944205     0.43300
C1838       C  0.86811313  0.27857195  0.77783416    -0.05700
Co1839     Co  0.78523935  0.21244461  0.79777831     0.73800
N1840       N  0.69734083  0.27563014  0.78385618    -0.45900
C1841       C  0.85409196  0.12562356  0.69407269     0.43600
N1842       N  0.83315272  0.14984500  0.81556703    -0.45900
Co1843     Co  0.71938689  0.21061424  0.75173491     0.73900
C1844       C  0.69523238  0.14389924  0.72061066    -0.06200
C1845       C  0.82494831  0.27470306  0.68075237    -0.05800
N1846       N  0.84605400  0.17266822  0.77671158    -0.25300
N1847       N  0.73217984  0.27325855  0.68357750    -0.46100
H1848       H  0.80624678  0.13636771  0.66788260     0.07600
C1849       C  0.74009533  0.14776904  0.81797808    -0.06200
Cl1850     Cl  0.78192828  0.21095167  0.74924133    -0.49200
C1851       C  0.70655479  0.29333358  0.80580269     0.43300
H1852       H  0.89184059  0.14165841  0.76851091     0.07500
N1853       N  0.69801537  0.14794816  0.78701616    -0.45900
C1854       C  0.92168792  0.32049745  0.63927560     0.03800
C1855       C  0.94105632  0.34579669  0.65371900    -0.12300
C1856       C  0.93094486  0.35579099  0.67912213     0.01300
C1857       C  0.90175527  0.33956762  0.69044162    -0.10800
C1858       C  0.88156098  0.31506968  0.67610945     0.03800
C1859       C  0.89067985  0.30698333  0.65010739    -0.10300
H1860       H  0.96540285  0.35573891  0.64598096     0.09400
H1861       H  0.89540618  0.34505412  0.71079141     0.07000
H1862       H  0.87566229  0.28730292  0.63932517     0.06800
C1863       C  0.68019198  0.36396924  0.64242502     0.03800
C1864       C  0.69477100  0.33220254  0.65338910    -0.12300
C1865       C  0.68530797  0.32033061  0.67864432     0.01300
C1866       C  0.65864853  0.33807355  0.69185252    -0.10800
C1867       C  0.64240523  0.36826533  0.68094038     0.03800
C1868       C  0.65438408  0.38222019  0.65685433    -0.10300
H1869       H  0.71381188  0.31694772  0.64249550     0.09400
H1870       H  0.65059791  0.32854626  0.71095871     0.07000
H1871       H  0.64342927  0.40715666  0.64931303     0.06800
C1872       C  0.95353713  0.37905700  0.69513819     0.43200
N1873       N  0.99378689  0.41694820  0.70425054     0.02100
C1874       C  0.59723949  0.41921563  0.81585659    -0.05800
H1875       H  0.96524860  0.43473101  0.83455801     0.07500
C1876       C  0.97196805  0.05388990  0.78071544    -0.06200
Co1877     Co  0.53271569  0.39529276  0.75279159     0.74200
N1878       N  0.99590303  0.42421262  0.79997224    -0.25400
Co1879     Co  0.53341311  0.46462554  0.79845899     0.74100
C1880       C  0.95669057  0.04418199  0.80590554     0.43300
N1881       N  0.99510655  0.02461625  0.71859215     0.01700
N1882       N  0.99617697  0.00568174  0.79662368     0.01800
N1883       N  0.59711424  0.37539999  0.78511669    -0.46200
H1884       H  0.96468421  0.34534973  0.73235266     0.07500
N1885       N  0.99564679  0.39786112  0.78258906     0.02100
N1886       N  0.57139399  0.00407039  0.79590242     0.01800
C1887       C  0.61483447  0.03805479  0.80416798     0.43400
N1888       N  0.99446489  0.99794289  0.70150493    -0.24800
C1889       C  0.59643390  0.37189632  0.71925731    -0.05700
N1890       N  0.97047527  0.40862116  0.68613161    -0.45900
N1891       N  0.59658274  0.00941911  0.81304468    -0.46100
C1892       C  0.61277986  0.38452210  0.69486935     0.43200
N1893       N  0.57147851  0.39861407  0.78130237     0.02000
N1894       N  0.56951500  0.99713001  0.70029591    -0.24800
N1895       N  0.99415984  0.39364383  0.72403854    -0.25300
N1896       N  0.57095719  0.02278083  0.71812551     0.01700
H1897       H  0.60038962  0.98576319  0.66591070     0.07600
H1898       H  0.60452075  0.07309413  0.76719699     0.07600
N1899       N  0.57103036  0.42448650  0.79901032    -0.25400
N1900       N  0.99635560  0.02886921  0.77676033    -0.25000
N1901       N  0.56902493  0.41781713  0.70331625     0.02100
C1902       C  0.95457581  0.38445099  0.80923627     0.43400
C1903       C  0.96846051  0.00340333  0.68469372    -0.06200
N1904       N  0.57168185  0.02764406  0.77634345    -0.25000
H1905       H  0.96730356  0.07737747  0.76842702     0.07600
N1906       N  0.97119677  0.37362900  0.78732360    -0.46200
H1907       H  0.96207496  0.98616531  0.66831633     0.07600
C1908       C  0.61383211  0.03375583  0.69261582     0.43300
C1909       C  0.96930168  0.36896135  0.72018986    -0.05700
Co1910     Co  0.53148362  0.45747134  0.70176738     0.73800
N1911       N  0.97035150  0.04880576  0.71436019    -0.45900
C1912       C  0.61486513  0.38701707  0.80631872     0.43600
N1913       N  0.59417884  0.41291186  0.68604084    -0.45900
Co1914     Co  0.53353216  0.02677190  0.74734428     0.73900
C1915       C  0.59826682  0.05039162  0.77982457    -0.06200
C1916       C  0.97083613  0.41808545  0.81768963    -0.05800
N1917       N  0.56970960  0.39428342  0.72288921    -0.25300
N1918       N  0.97335060  0.01446199  0.81498592    -0.46100
H1919       H  0.60298704  0.43566010  0.83279716     0.07600
C1920       C  0.59530288  0.00214763  0.68300672    -0.06200
Cl1921     Cl  0.53256713  0.46101624  0.75010830    -0.49200
C1922       C  0.95263038  0.03715839  0.69318648     0.43300
H1923       H  0.60315758  0.34957088  0.73209335     0.07500
N1924       N  0.59692455  0.04540466  0.71414642    -0.45900
C1925       C  0.69158037  0.04316470  0.88379349    -0.04600
C1926       C  0.66751969  0.03155998  0.90320790    -0.01700
C1927       C  0.67915609  0.01357155  0.92617040     0.03200
C1928       C  0.71488427  0.01136658  0.93164898    -0.04600
C1929       C  0.73878687  0.02562237  0.91327989    -0.01700
C1930       C  0.72740396  0.03887786  0.88882224     0.03200
C1931       C  0.63080101  0.03826664  0.89987865     0.37900
C1932       C  0.77554552  0.02535665  0.91910142     0.37900
C1933       C  0.75285472  0.04551809  0.86832437     0.36300
C1934       C  0.65446126  0.99599588  0.94349901     0.36300
N1935       N  0.77319551  0.05055123  0.85200873    -0.38500
N1936       N  0.63483836  0.98186128  0.95733427    -0.38500
N1937       N  0.80486992  0.52537439  0.92358424    -0.38000
N1938       N  0.60148290  0.04360272  0.89732065    -0.38000
C1939       C  0.83865986  0.38415745  0.93265693    -0.04600
C1940       C  0.85624937  0.41084890  0.91790004    -0.01700
C1941       C  0.87055866  0.40253001  0.89326967     0.03200
C1942       C  0.87141579  0.36621835  0.88457282    -0.04600
C1943       C  0.85775461  0.33869020  0.90128534    -0.01700
C1944       C  0.83951616  0.34793650  0.92434255     0.03200
C1945       C  0.85918226  0.44728142  0.92806897     0.37900
C1946       C  0.86269221  0.30079629  0.89504808     0.37900
C1947       C  0.82081595  0.32044305  0.93900012     0.36300
C1948       C  0.88221438  0.43201573  0.87649758     0.36300
N1949       N  0.80586239  0.29849828  0.95067454    -0.38500
N1950       N  0.89142150  0.45571737  0.86327157    -0.38500
N1951       N  0.86670987  0.27058691  0.89010153    -0.38000
N1952       N  0.86204726  0.47608400  0.93649507    -0.38000
C1953       C  0.63380735  0.11109562  0.61549404    -0.04600
C1954       C  0.65598743  0.12488890  0.59569421    -0.01700
C1955       C  0.64267166  0.14742689  0.57560031     0.03200
C1956       C  0.60650325  0.15177243  0.57273722    -0.04600
C1957       C  0.58415246  0.13431071  0.59070560    -0.01700
C1958       C  0.59758737  0.11653088  0.61297302     0.03200
C1959       C  0.69235883  0.11512516  0.59562652     0.37900
C1960       C  0.54711198  0.13415244  0.58611151     0.37900
C1961       C  0.57378636  0.10581374  0.63370828     0.36300
C1962       C  0.66626888  0.16662951  0.55830842     0.36300
N1963       N  0.55462989  0.09741920  0.65014005    -0.38500
N1964       N  0.68526279  0.18202692  0.54467645    -0.38500
N1965       N  0.51763286  0.13347787  0.58228923    -0.38000
N1966       N  0.72122754  0.10680255  0.59555826    -0.38000
C1967       C  0.93670804  0.30467476  0.61469114    -0.04600
C1968       C  0.94938625  0.32749099  0.59438338    -0.01700
C1969       C  0.96869241  0.31293987  0.57336639     0.03200
C1970       C  0.97335112  0.27517193  0.57134464    -0.04600
C1971       C  0.95770618  0.25217294  0.59010929    -0.01700
C1972       C  0.94103643  0.26670486  0.61230930     0.03200
C1973       C  0.94243890  0.36601943  0.59499180     0.37900
C1974       C  0.95815362  0.21336532  0.58626062     0.37900
C1975       C  0.93023446  0.24229177  0.63322592     0.36300
C1976       C  0.98425785  0.33693062  0.55405094     0.36300
N1977       N  0.92176067  0.22265921  0.64983507    -0.38500
N1978       N  0.99661448  0.35605777  0.53859741    -0.38500
N1979       N  0.45778903  0.18245883  0.58298919    -0.38000
N1980       N  0.93686022  0.39674611  0.59549918    -0.38000
C1981       C  0.60689845  0.27836521  0.93043768    -0.04600
C1982       C  0.64314117  0.28224742  0.92791482    -0.01700
C1983       C  0.65719591  0.30148082  0.90628858     0.03200
C1984       C  0.63532397  0.31416171  0.88579678    -0.04600
C1985       C  0.59892454  0.31022386  0.88866955    -0.01700
C1986       C  0.58503828  0.29465937  0.91160636     0.03200
C1987       C  0.66599131  0.26655192  0.94753387     0.37900
C1988       C  0.57523533  0.31990280  0.86758426     0.37900
C1989       C  0.54792780  0.29569912  0.91600204     0.36300
C1990       C  0.69413615  0.30839400  0.90532986     0.36300
N1991       N  0.51843801  0.29695630  0.91973682    -0.38500
N1992       N  0.72359863  0.31389749  0.90459999    -0.38500
N1993       N  0.55611661  0.32755285  0.85093155    -0.38000
N1994       N  0.68419576  0.25442366  0.96336751    -0.38000
C1995       C  0.93939795  0.12230062  0.88430251    -0.04600
C1996       C  0.95256603  0.10020573  0.90491585    -0.01700
C1997       C  0.97177452  0.11560066  0.92569999     0.03200
C1998       C  0.97561643  0.15351060  0.92738408    -0.04600
C1999       C  0.95974946  0.17574158  0.90822814    -0.01700
C2000       C  0.94331988  0.16038850  0.88618890     0.03200
C2001       C  0.94592812  0.06158290  0.90503896     0.37900
C2002       C  0.95942072  0.21464211  0.91158020     0.37900
C2003       C  0.93212019  0.18418292  0.86501902     0.36300
C2004       C  0.98793328  0.09232364  0.94520766     0.36300
N2005       N  0.92325502  0.20335012  0.84823566    -0.38500
N2006       N  0.00083085  0.07364233  0.96070476    -0.38500
N2007       N  0.95837467  0.24563210  0.91435878    -0.38000
N2008       N  0.94053702  0.03080401  0.90512981    -0.38000
C2009       C  0.85011090  0.02436947  0.56690710    -0.04600
C2010       C  0.85365489  0.06169702  0.57143503    -0.01700
C2011       C  0.86739072  0.07381185  0.59545886     0.03200
C2012       C  0.87586553  0.04855639  0.61554190    -0.04600
C2013       C  0.87381656  0.01104030  0.61026523    -0.01700
C2014       C  0.86250746  0.99923120  0.58557182     0.03200
C2015       C  0.84234762  0.08754330  0.55165638     0.37900
C2016       C  0.88122436  0.98426211  0.63053699     0.37900
C2017       C  0.86318820  0.46101955  0.57936359     0.36300
C2018       C  0.87259814  0.11223777  0.59945645     0.36300
N2019       N  0.86439481  0.43061591  0.57430373    -0.38500
N2020       N  0.87666045  0.14289441  0.60263986    -0.38500
N2021       N  0.88713959  0.46277554  0.64657942    -0.38000
N2022       N  0.83347292  0.10814224  0.53580755    -0.38000
C2023       C  0.69240587  0.37856177  0.61626229    -0.04600
C2024       C  0.66848627  0.39170898  0.59716373    -0.01700
C2025       C  0.68039306  0.40931007  0.57408304     0.03200
C2026       C  0.71599135  0.40966946  0.56806232    -0.04600
C2027       C  0.73940897  0.39264454  0.58548087    -0.01700
C2028       C  0.72824656  0.37996860  0.61021808     0.03200
C2029       C  0.63159016  0.38646193  0.60070355     0.37900
C2030       C  0.77524495  0.38791326  0.57775251     0.35900
C2031       C  0.75424298  0.37064680  0.62973304     0.36300
C2032       C  0.65609165  0.42767038  0.55685734     0.36300
N2033       N  0.77520655  0.36341620  0.64515267    -0.38500
N2034       N  0.63673447  0.44238483  0.54310881    -0.38500
N2035       N  0.80359278  0.38342514  0.57128334    -0.38000
N2036       N  0.60215214  0.38219044  0.60347846    -0.38000
C2037       C  0.69210745  0.05746087  0.11514538    -0.04600
C2038       C  0.70581971  0.07819745  0.09400575    -0.01700
C2039       C  0.72314787  0.06111196  0.07299892     0.03200
C2040       C  0.72306686  0.02301702  0.07100793    -0.04600
C2041       C  0.70728880  0.00228113  0.09111388    -0.01700
C2042       C  0.69398160  0.01913323  0.11372815     0.03200
C2043       C  0.70214803  0.11720085  0.09367192     0.37900
C2044       C  0.70537507  0.46322394  0.08876273     0.37900
C2045       C  0.68458598  0.99655490  0.13609219     0.36300
C2046       C  0.74185860  0.08279960  0.05385502     0.36300
N2047       N  0.67727549  0.97843862  0.15388991    -0.38500
N2048       N  0.75671520  0.10013499  0.03856514    -0.38500
N2049       N  0.70378111  0.43212016  0.08680261    -0.38000
N2050       N  0.69943363  0.14834644  0.09350933    -0.38000
C2051       C  0.61243130  0.15524358  0.43439861    -0.04600
C2052       C  0.60332014  0.12020945  0.42612191    -0.01700
C2053       C  0.61900849  0.10540392  0.40361356     0.03200
C2054       C  0.63769465  0.12813826  0.38596002    -0.04600
C2055       C  0.64636832  0.16359538  0.39459500    -0.01700
C2056       C  0.63761310  0.17461911  0.42016858     0.03200
C2057       C  0.57697006  0.09981159  0.44008295     0.37900
C2058       C  0.66032300  0.19072424  0.37681655     0.37900
C2059       C  0.65166946  0.20782254  0.43087057     0.36300
C2060       C  0.61617244  0.06680401  0.39919864     0.36300
N2061       N  0.66280711  0.23411663  0.43968435    -0.38500
N2062       N  0.61392327  0.03599709  0.39576020    -0.38500
N2063       N  0.67100751  0.21285806  0.36282565    -0.38000
N2064       N  0.55585472  0.08352206  0.45110294    -0.38000
C2065       C  0.89128644  0.05803337  0.38607315    -0.04600
C2066       C  0.88700988  0.01991353  0.38729532    -0.01700
C2067       C  0.87132277  0.00351305  0.40936341     0.03200
C2068       C  0.85653303  0.02495300  0.42928363    -0.04600
C2069       C  0.86151501  0.06288798  0.42851358    -0.01700
C2070       C  0.87983538  0.07913556  0.40748798     0.03200
C2071       C  0.89644335  0.99734578  0.36518307     0.37900
C2072       C  0.84706393  0.08547031  0.44898246     0.37900
C2073       C  0.88672110  0.11769276  0.40788132     0.36300
C2074       C  0.86948315  0.46435495  0.41122648     0.36300
N2075       N  0.89217105  0.14844578  0.40825830    -0.38500
N2076       N  0.86784374  0.43317084  0.41273335    -0.38500
N2077       N  0.83576685  0.10353351  0.46536726    -0.38000
N2078       N  0.90386205  0.97926565  0.34757971    -0.38000
C2079       C  0.63493045  0.30546953  0.11574624    -0.04600
C2080       C  0.61650172  0.32845080  0.09818748    -0.01700
C2081       C  0.59859870  0.31364943  0.07661984     0.03200
C2082       C  0.60508127  0.27766741  0.06895221    -0.04600
C2083       C  0.62915827  0.25692993  0.08341989    -0.01700
C2084       C  0.64058419  0.26897575  0.10814587     0.03200
C2085       C  0.61675677  0.36736633  0.10160380     0.37900
C2086       C  0.64004133  0.22199477  0.07358143     0.37900
C2087       C  0.65492369  0.24247786  0.12628503     0.36300
C2088       C  0.57268237  0.33513160  0.06306347     0.36300
N2089       N  0.66597118  0.22111298  0.14075298    -0.38500
N2090       N  0.55183397  0.35232889  0.05246728    -0.38500
N2091       N  0.64833061  0.19429251  0.06525794    -0.38000
N2092       N  0.61736400  0.39842642  0.10417515    -0.38000
C2093       C  0.94367052  0.12912138  0.11343668    -0.04600
C2094       C  0.95395757  0.10581549  0.09290129    -0.01700
C2095       C  0.96674823  0.12036552  0.06911664     0.03200
C2096       C  0.96726049  0.15816421  0.06514125    -0.04600
C2097       C  0.95272882  0.18110527  0.08420653    -0.01700
C2098       C  0.94288668  0.16701335  0.10879496     0.03200
C2099       C  0.95169726  0.06690263  0.09623160     0.37900
C2100       C  0.95016568  0.21970751  0.07904404     0.37900
C2101       C  0.93460038  0.19204601  0.12976475     0.36300
C2102       C  0.48067398  0.09654966  0.04920596     0.36300
N2103       N  0.92809141  0.21208444  0.14642647    -0.38500
N2104       N  0.49165670  0.07758897  0.03324403    -0.38500
N2105       N  0.94812739  0.25044000  0.07489683    -0.38000
N2106       N  0.94991096  0.03585800  0.09888184    -0.38000
C2107       C  0.71567555  0.40544199  0.42877717    -0.04600
C2108       C  0.69236478  0.42433689  0.41241272    -0.01700
C2109       C  0.68034495  0.40838629  0.38908524     0.03200
C2110       C  0.68603834  0.37089077  0.38437550    -0.04600
C2111       C  0.70499830  0.35063583  0.40330570    -0.01700
C2112       C  0.72178569  0.36833270  0.42421655     0.03200
C2113       C  0.68242840  0.46111764  0.41885480     0.37900
C2114       C  0.70737294  0.31156959  0.40148775     0.37900
C2115       C  0.74562990  0.34829188  0.44086588     0.36300
C2116       C  0.66500691  0.43190633  0.36928544     0.36300
N2117       N  0.76447285  0.33214184  0.45417393    -0.38500
N2118       N  0.65296327  0.45094208  0.35360375    -0.38500
N2119       N  0.70944705  0.28044134  0.39996072    -0.38000
N2120       N  0.67478062  0.49045923  0.42405089    -0.38000
C2121       C  0.88551244  0.36148028  0.11483356    -0.04600
C2122       C  0.84868401  0.36160161  0.11361887    -0.01700
C2123       C  0.83155368  0.37493904  0.09114548     0.03200
C2124       C  0.85039233  0.39188662  0.07078675    -0.04600
C2125       C  0.88692390  0.39248166  0.07200680    -0.01700
C2126       C  0.90436981  0.37550501  0.09316128     0.03200
C2127       C  0.82772590  0.34961773  0.13573355     0.37900
C2128       C  0.90659971  0.41096221  0.05169254     0.37900
C2129       C  0.94167674  0.37151881  0.09213215     0.36300
C2130       C  0.79415638  0.37176907  0.08911660     0.36300
N2131       N  0.97140589  0.36804494  0.09116592    -0.38500
N2132       N  0.76440631  0.36917439  0.08741730    -0.38500
N2133       N  0.92227981  0.42555944  0.03540640    -0.38000
N2134       N  0.81073826  0.33986828  0.15313172    -0.38000
C2135       C  0.95013606  0.30200873  0.38460844    -0.04600
C2136       C  0.95303864  0.26418371  0.38896807    -0.01700
C2137       C  0.96427286  0.25076182  0.41343174     0.03200
C2138       C  0.97624057  0.27471050  0.43290047    -0.04600
C2139       C  0.97278953  0.31236247  0.42897984    -0.01700
C2140       C  0.95870760  0.32594359  0.40525357     0.03200
C2141       C  0.94664395  0.23874143  0.36788837     0.37900
C2142       C  0.48482741  0.33712024  0.44898019     0.37900
C2143       C  0.95291343  0.36450810  0.40225478     0.36300
C2144       C  0.96544566  0.21198189  0.41814493     0.36300
N2145       N  0.94826552  0.39527394  0.39989108    -0.38500
N2146       N  0.96668449  0.18113127  0.42196914    -0.38500
N2147       N  0.49439529  0.35675160  0.46503080    -0.38000
N2148       N  0.94153703  0.21839184  0.35115058    -0.38000
C2149       C  0.93814586  0.81602105  0.35848713     0.03800
C2150       C  0.95727425  0.84209988  0.34434481    -0.12300
C2151       C  0.94641128  0.85354387  0.31921928     0.01300
C2152       C  0.91769108  0.83682033  0.30761450    -0.10800
C2153       C  0.89897293  0.81031944  0.32126076     0.03800
C2154       C  0.90823514  0.80153002  0.34707812    -0.10300
H2155       H  0.98052386  0.85339189  0.35287056     0.09400
H2156       H  0.90999444  0.84403179  0.28781240     0.07000
H2157       H  0.89277207  0.78240192  0.35818078     0.06800
C2158       C  0.90379529  0.84910842  0.13938804     0.03800
C2159       C  0.92834948  0.87156061  0.15175106    -0.12300
C2160       C  0.93911034  0.86430694  0.17763838     0.01300
C2161       C  0.92345503  0.83610670  0.19175339    -0.10800
C2162       C  0.89964989  0.81319223  0.17950479     0.03800
C2163       C  0.89261878  0.81778588  0.15269065    -0.10300
H2164       H  0.93709635  0.89611919  0.14212640     0.09400
H2165       H  0.92896197  0.83272162  0.21252735     0.07000
H2166       H  0.87454967  0.79972481  0.14317894     0.06800
C2167       C  0.67470696  0.85384099  0.35899640     0.03800
C2168       C  0.64295259  0.86334839  0.34732421    -0.12300
C2169       C  0.63739990  0.85733474  0.32050045     0.01300
C2170       C  0.66046216  0.83523512  0.30655960    -0.10800
C2171       C  0.68952129  0.82055364  0.31915886     0.03800
C2172       C  0.69751937  0.83155943  0.34473932    -0.10300
H2173       H  0.62444408  0.87931265  0.35820250     0.09400
H2174       H  0.65617934  0.83011677  0.28585507     0.07000
H2175       H  0.72251105  0.82427827  0.35278430     0.06800
C2176       C  0.93396054  0.61433408  0.13979275     0.03800
C2177       C  0.95611141  0.59101684  0.15381467    -0.12300
C2178       C  0.94732451  0.57912489  0.17928386     0.01300
C2179       C  0.91760485  0.59316846  0.19146989    -0.10800
C2180       C  0.89622524  0.61751027  0.17791730     0.03800
C2181       C  0.90327718  0.62576796  0.15162103    -0.10300
H2182       H  0.98001016  0.58221354  0.14482580     0.09400
H2183       H  0.91157944  0.58589016  0.21162657     0.07000
H2184       H  0.88566955  0.64279434  0.14053600     0.06800
C2185       C  0.96453601  0.88303053  0.30509074     0.43200
N2186       N  0.49890324  0.92713974  0.29689163     0.02100
C2187       C  0.50017747  0.53417675  0.18398142    -0.05800
H2188       H  0.50906422  0.90013573  0.16428271     0.07500
C2189       C  0.62643882  0.90026049  0.22039890    -0.06200
Co2190     Co  0.97792214  0.96804920  0.24831207     0.74200
N2191       N  0.50343819  0.92923967  0.20076728    -0.25400
Co2192     Co  0.54348692  0.96719601  0.20182561     0.74100
C2193       C  0.61584779  0.88243288  0.19621568     0.43300
N2194       N  0.60017865  0.92596686  0.28131165     0.01700
N2195       N  0.58135696  0.92672512  0.20403378     0.01800
N2196       N  0.95812010  0.53387598  0.21491925    -0.46200
H2197       H  0.93163201  0.89596059  0.26829710     0.07500
N2198       N  0.97905250  0.92916771  0.21895261     0.02100
N2199       N  0.58287600  0.00592203  0.20364619     0.01800
C2200       C  0.61846761  0.54886412  0.19465052     0.43400
N2201       N  0.57584677  0.92608038  0.29945520    -0.24800
C2202       C  0.95495640  0.53359229  0.28145088    -0.05700
N2203       N  0.49266565  0.90077892  0.31402674    -0.45900
N2204       N  0.59071533  0.53056616  0.18550857    -0.46100
C2205       C  0.96455337  0.54913823  0.30665430     0.43200
N2206       N  0.98103722  0.00793243  0.21923119     0.02000
N2207       N  0.57633478  0.00511204  0.29984340    -0.24800
N2208       N  0.97631762  0.92808832  0.27744247    -0.25300
N2209       N  0.60110065  0.00539213  0.28200951     0.01700
H2210       H  0.56593201  0.53832452  0.33361121     0.07600
H2211       H  0.65012814  0.53756376  0.23211011     0.07600
N2212       N  0.50578619  0.00739728  0.20136051    -0.25400
N2213       N  0.60382327  0.92715698  0.22355127    -0.25000
N2214       N  0.49944700  0.00589860  0.29756139     0.02100
C2215       C  0.96244504  0.88921735  0.19144997     0.43400
C2216       C  0.58187599  0.89858865  0.31626011    -0.06200
N2217       N  0.60471963  0.00597618  0.22357233    -0.25000
H2218       H  0.64824779  0.89494787  0.23314434     0.07600
N2219       N  0.95407452  0.90570212  0.21409932    -0.46200
H2220       H  0.56691059  0.89244116  0.33368970     0.07600
C2221       C  0.61323093  0.55001032  0.30716261     0.43300
C2222       C  0.95356885  0.90122609  0.28087662    -0.05700
Co2223     Co  0.53762816  0.96602563  0.29912451     0.73800
N2224       N  0.62279147  0.89951338  0.28464587    -0.45900
C2225       C  0.96855126  0.55180518  0.19312456     0.43600
N2226       N  0.49195639  0.53011934  0.31583319    -0.45900
Co2227     Co  0.60310168  0.96623485  0.25268774     0.73900
C2228       C  0.62790590  0.53236656  0.21977988    -0.06200
C2229       C  0.49499518  0.90497621  0.18229359    -0.05800
N2230       N  0.97763442  0.00689905  0.27762760    -0.25300
N2231       N  0.58784577  0.90057694  0.18694625    -0.46100
H2232       H  0.51565146  0.53956878  0.16669193     0.07600
C2233       C  0.58179817  0.53225236  0.31670563    -0.06200
Cl2234     Cl  0.54050487  0.96686504  0.25046100    -0.49200
C2235       C  0.61283451  0.88053304  0.30604916     0.43300
H2236       H  0.93281433  0.53944065  0.26912752     0.07500
N2237       N  0.62381909  0.53161066  0.28577431    -0.45900
C2238       C  0.64655861  0.81903804  0.14217830     0.03800
C2239       C  0.67852611  0.80812656  0.15295027    -0.12300
C2240       C  0.68735683  0.81679415  0.17883095     0.01300
C2241       C  0.66636763  0.84067959  0.19286826    -0.10800
C2242       C  0.63575885  0.85448289  0.18189978     0.03800
C2243       C  0.62506356  0.84193798  0.15722285    -0.10300
H2244       H  0.69633221  0.79207557  0.14148890     0.09400
H2245       H  0.67373405  0.84809017  0.21257471     0.07000
H2246       H  0.60001423  0.85015673  0.14979108     0.06800
C2247       C  0.90453700  0.57577380  0.36144161     0.03800
C2248       C  0.88376951  0.60144293  0.34820428    -0.12300
C2249       C  0.89162659  0.61210870  0.32237686     0.01300
C2250       C  0.91994472  0.59666941  0.30961033    -0.10800
C2251       C  0.94116614  0.57157782  0.32254345     0.03800
C2252       C  0.93460659  0.56282894  0.34895781    -0.10300
H2253       H  0.85992570  0.61074123  0.35709658     0.09400
H2254       H  0.92449989  0.60291489  0.28903740     0.07000
H2255       H  0.95054882  0.54277409  0.35877931     0.06800
C2256       C  0.64680951  0.61532024  0.35869682     0.03800
C2257       C  0.67787965  0.62597586  0.34647696    -0.12300
C2258       C  0.68467603  0.61714296  0.32026738     0.01300
C2259       C  0.66338637  0.59223156  0.30749254    -0.10800
C2260       C  0.63358969  0.57892265  0.31984307     0.03800
C2261       C  0.62411325  0.59278952  0.34444783    -0.10300
H2262       H  0.69681732  0.64166682  0.35708090     0.09400
H2263       H  0.66959808  0.58364584  0.28774706     0.07000
H2264       H  0.59927126  0.58548970  0.35261890     0.06800
C2265       C  0.67860391  0.57547048  0.13955688     0.03800
C2266       C  0.69851554  0.60215591  0.15217430    -0.12300
C2267       C  0.68985654  0.61404132  0.17742417     0.01300
C2268       C  0.66239321  0.59760378  0.19088019    -0.10800
C2269       C  0.64189948  0.57146337  0.17857186     0.03800
C2270       C  0.64861992  0.56245237  0.15230140    -0.10300
H2271       H  0.72234192  0.61168568  0.14333641     0.09400
H2272       H  0.65769299  0.60430381  0.21128929     0.07000
H2273       H  0.63276067  0.54222189  0.14283545     0.06800
C2274       C  0.87665564  0.79035553  0.19563701     0.43200
N2275       N  0.83195216  0.75747086  0.20332217     0.02100
C2276       C  0.72862540  0.76282146  0.31474891    -0.05800
H2277       H  0.85752648  0.74158322  0.33431784     0.07500
C2278       C  0.85257272  0.62420910  0.28164100    -0.06200
Co2279     Co  0.79371923  0.78181691  0.25111986     0.74200
N2280       N  0.82848719  0.75252133  0.29900629    -0.25400
Co2281     Co  0.79037636  0.71315859  0.29780999     0.74100
C2282       C  0.86724955  0.63415840  0.30692822     0.43300
N2283       N  0.82850635  0.65157173  0.21846082     0.01700
N2284       N  0.82733694  0.67189058  0.29689071     0.01800
N2285       N  0.73112606  0.80627507  0.28325990    -0.46200
H2286       H  0.86649552  0.82505839  0.23220841     0.07500
N2287       N  0.82999687  0.77849295  0.28115912     0.02100
N2288       N  0.75253639  0.67331246  0.29579991     0.01800
C2289       C  0.71319154  0.63502870  0.30607901     0.43400
N2290       N  0.82842306  0.67763004  0.20064688    -0.24800
C2291       C  0.73366763  0.81020101  0.21643719    -0.05700
N2292       N  0.85732598  0.76287486  0.18621737    -0.45900
N2293       N  0.72912152  0.66558925  0.31397330    -0.46100
C2294       C  0.71754885  0.79976826  0.19170815     0.43200
N2295       N  0.75461689  0.78074784  0.27937357     0.02000
N2296       N  0.75399656  0.67919244  0.20010221    -0.24800
N2297       N  0.83267380  0.78067689  0.22289125    -0.25300
N2298       N  0.75314613  0.65366374  0.21840498     0.01700
H2299       H  0.72559128  0.68644530  0.16382879     0.07600
H2300       H  0.72438181  0.60059541  0.26948678     0.07600
N2301       N  0.75366690  0.75491590  0.29745425    -0.25400
N2302       N  0.82785833  0.64880517  0.27719285    -0.25000
N2303       N  0.75658371  0.76090300  0.20187505     0.02100
C2304       C  0.87028972  0.79124112  0.30835525     0.43400
C2305       C  0.85262577  0.67083452  0.18269793    -0.06200
N2306       N  0.75307750  0.64942619  0.27666991    -0.25000
H2307       H  0.85785676  0.60085513  0.26961018     0.07600
N2308       N  0.85469584  0.80229009  0.28598781    -0.46200
H2309       H  0.85782185  0.68725304  0.16547765     0.07600
C2310       C  0.71306866  0.63861892  0.19159465     0.43300
C2311       C  0.86011426  0.80234202  0.21985003    -0.05700
Co2312     Co  0.79255712  0.71894603  0.20092884     0.73800
N2313       N  0.85207063  0.62640502  0.21362549    -0.45900
C2314       C  0.71340303  0.79652448  0.30500568     0.43600
N2315       N  0.73302760  0.76890550  0.18379979    -0.45900
Co2316     Co  0.79071888  0.65034760  0.24762357     0.73900
C2317       C  0.72882396  0.62437439  0.28125549    -0.06200
C2318       C  0.85305715  0.75814910  0.31704857    -0.05800
N2319       N  0.75750094  0.78471602  0.22103205    -0.25300
N2320       N  0.85010290  0.66362461  0.31551077    -0.46100
H2321       H  0.72272931  0.74763985  0.33241833     0.07600
C2322       C  0.72981779  0.67164962  0.18195425    -0.06200
Cl2323     Cl  0.79170995  0.71605482  0.24937998    -0.49200
C2324       C  0.86811382  0.63686052  0.19124904     0.43300
H2325       H  0.72916775  0.83365010  0.22853746     0.07500
N2326       N  0.72920337  0.62893419  0.21400316    -0.45900
N2327       N  0.77977287  0.97061084  0.53693981    -0.35900
N2328       N  0.82360698  0.00464453  0.49731407    -0.56500
N2329       N  0.78496162  0.96582129  0.45747971    -0.35900
N2330       N  0.73835093  0.93538380  0.49752457    -0.56500
C2331       C  0.79624748  0.99624443  0.55092531     0.27700
C2332       C  0.75196462  0.96016387  0.55115552     0.27700
C2333       C  0.80390960  0.98887877  0.44237182     0.27700
C2334       C  0.75999303  0.95140327  0.44206622     0.27700
C2335       C  0.84234946  0.51184260  0.51899100     0.36300
C2336       C  0.84476984  0.51025679  0.47664010     0.36300
C2337       C  0.72461585  0.91922769  0.51908435     0.36300
C2338       C  0.72646270  0.91713778  0.47649394     0.36300
C2339       C  0.77857595  0.00237620  0.57421322    -0.21200
C2340       C  0.75061550  0.97946984  0.57437876    -0.21200
C2341       C  0.79073728  0.98916561  0.41706194    -0.21200
C2342       C  0.76388315  0.96494327  0.41665938    -0.21200
C2343       C  0.87551497  0.52248398  0.51216855    -0.22200
C2344       C  0.87706162  0.52149420  0.48519315    -0.22200
C2345       C  0.70337783  0.89096644  0.51176426    -0.22200
C2346       C  0.70385310  0.89018617  0.48478105    -0.22200
C2347       C  0.82889589  0.51100762  0.54464668    -0.17600
C2348       C  0.73022602  0.93074448  0.54515595    -0.17600
C2349       C  0.73489373  0.92513040  0.44992578    -0.17600
C2350       C  0.83435950  0.00760522  0.45017356    -0.17600
H2351       H  0.78574532  0.02062301  0.58983657     0.15300
H2352       H  0.73194084  0.97655040  0.59010609     0.15300
H2353       H  0.80015363  0.00436686  0.40027940     0.15300
H2354       H  0.74935560  0.95811311  0.39925693     0.15300
H2355       H  0.89620143  0.53051081  0.52522081     0.13600
H2356       H  0.89925379  0.52850780  0.47323518     0.13600
H2357       H  0.68856887  0.87318483  0.52443523     0.13600
H2358       H  0.68924434  0.87165282  0.47275328     0.13600
H2359       H  0.78898100  0.95839163  0.52002921     0.26900
H2360       H  0.78996996  0.95859601  0.47679279     0.26900
N2361       N  0.53667848  0.71822573  0.03803253    -0.35900
N2362       N  0.00013450  0.67770867  0.99689546    -0.56500
N2363       N  0.54249894  0.71403191  0.95842073    -0.35900
N2364       N  0.58191836  0.75110226  0.99971688    -0.56500
C2365       C  0.51912152  0.69317713  0.05218782     0.27700
C2366       C  0.56131994  0.73219074  0.05399168     0.27700
C2367       C  0.52745578  0.68807848  0.94357092     0.27700
C2368       C  0.57043899  0.72637457  0.94511378     0.27700
C2369       C  0.97913131  0.67094912  0.01749281     0.36300
C2370       C  0.98213765  0.66896853  0.97511087     0.36300
C2371       C  0.59152693  0.77053568  0.02090581     0.36300
C2372       C  0.59375844  0.76910517  0.97837853     0.36300
C2373       C  0.53270397  0.69117514  0.07737413    -0.21200
C2374       C  0.55862355  0.71624146  0.07871097    -0.21200
C2375       C  0.54615355  0.68380592  0.92056856    -0.21200
C2376       C  0.57329147  0.70795257  0.92154189    -0.21200
C2377       C  0.94771182  0.65747013  0.00886811    -0.22200
C2378       C  0.94960299  0.65623886  0.98189805    -0.22200
C2379       C  0.61050410  0.80046531  0.01300361    -0.22200
C2380       C  0.61109967  0.80009178  0.98603865    -0.22200
C2381       C  0.98907657  0.67447381  0.04397611    -0.17600
C2382       C  0.58487470  0.76024452  0.04722994    -0.17600
C2383       C  0.59084590  0.75668645  0.95226103    -0.17600
C2384       C  0.99577209  0.67039233  0.94940876    -0.17600
H2385       H  0.52412849  0.67418892  0.09351077     0.15300
H2386       H  0.57318828  0.72210837  0.09628641     0.15300
H2387       H  0.54040472  0.66571322  0.90452258     0.15300
H2388       H  0.59244371  0.71221252  0.90631211     0.15300
H2389       H  0.92592525  0.64905327  0.02078462     0.13600
H2390       H  0.92952694  0.64672607  0.96883348     0.13600
H2391       H  0.62268664  0.82057882  0.02522505     0.13600
H2392       H  0.62360465  0.81999167  0.97358998     0.13600
H2393       H  0.53055056  0.72689684  0.01920543     0.26900
H2394       H  0.53261757  0.72506749  0.97551079     0.26900
N2395       N  0.54466847  0.71656195  0.46315779    -0.35900
N2396       N  0.50433809  0.75499979  0.50268697    -0.56500
N2397       N  0.54324459  0.71642389  0.54281557    -0.35900
N2398       N  0.58623568  0.68137476  0.50314944    -0.56500
C2399       C  0.52844121  0.74204833  0.44849769     0.27700
C2400       C  0.57049777  0.70279742  0.44831957     0.27700
C2401       C  0.52660772  0.74166408  0.55725409     0.27700
C2402       C  0.56981769  0.70358466  0.55746230     0.27700
C2403       C  0.98507388  0.76238462  0.48119119     0.36300
C2404       C  0.98414508  0.76193951  0.52368725     0.36300
C2405       C  0.59735182  0.66264256  0.48207242     0.36300
C2406       C  0.59638340  0.66251904  0.52461166     0.36300
C2407       C  0.54422120  0.74476285  0.42412834    -0.21200
C2408       C  0.57009017  0.71955604  0.42375722    -0.21200
C2409       C  0.54290007  0.74499976  0.58140252    -0.21200
C2410       C  0.57017669  0.72098087  0.58153048    -0.21200
C2411       C  0.95258361  0.77451443  0.48848145    -0.22200
C2412       C  0.95197208  0.77420789  0.51551740    -0.22200
C2413       C  0.61557356  0.63228608  0.49019587    -0.22200
C2414       C  0.61427476  0.63175625  0.51713964    -0.22200
C2415       C  0.99732527  0.75989845  0.45518402    -0.17600
C2416       C  0.59266053  0.67380478  0.45570476    -0.17600
C2417       C  0.59126164  0.67387171  0.55078620    -0.17600
C2418       C  0.99539481  0.75933709  0.55002768    -0.17600
H2419       H  0.53688778  0.76204124  0.40779216     0.15300
H2420       H  0.58591169  0.71403101  0.40678019     0.15300
H2421       H  0.53541868  0.76234386  0.59747874     0.15300
H2422       H  0.58773651  0.71613011  0.59775280     0.15300
H2423       H  0.93165282  0.78286523  0.47567406     0.13600
H2424       H  0.93045675  0.78232282  0.52774316     0.13600
H2425       H  0.62847540  0.61249906  0.47809407     0.13600
H2426       H  0.62575057  0.61131610  0.52971482     0.13600
H2427       H  0.53671612  0.70704093  0.48142966     0.26900
H2428       H  0.53507626  0.70619016  0.52489566     0.26900
N2429       N  0.77332750  0.94383066  0.96297979    -0.35900
N2430       N  0.81642719  0.90891661  0.00212964    -0.56500
N2431       N  0.78377631  0.95470940  0.04142768    -0.35900
N2432       N  0.74066491  0.98973772  0.00188505    -0.56500
C2433       C  0.78705204  0.91671769  0.94862122     0.27700
C2434       C  0.74753432  0.95853068  0.94847786     0.27700
C2435       C  0.81061264  0.94083126  0.05543004     0.27700
C2436       C  0.77053247  0.98252158  0.05548219     0.27700
C2437       C  0.82828247  0.89069823  0.98110043     0.36300
C2438       C  0.83325221  0.89566334  0.02328551     0.36300
C2439       C  0.72424324  0.50312404  0.98049814     0.36300
C2440       C  0.72831542  0.50765712  0.02291274     0.36300
C2441       C  0.76966812  0.91397966  0.92490507    -0.21200
C2442       C  0.74460424  0.94021037  0.92486455    -0.21200
C2443       C  0.81437231  0.96009570  0.07855461    -0.21200
C2444       C  0.78915535  0.98624382  0.07860619    -0.21200
C2445       C  0.85289948  0.86563261  0.98884156    -0.22200
C2446       C  0.85518971  0.86790339  0.01571528    -0.22200
C2447       C  0.70156556  0.53019233  0.98792453    -0.22200
C2448       C  0.70308674  0.53201254  0.01486676    -0.22200
C2449       C  0.81669571  0.89618441  0.95513028    -0.17600
C2450       C  0.72857487  0.49013068  0.95460637    -0.17600
C2451       C  0.74113016  0.50388236  0.04889341    -0.17600
C2452       C  0.83093710  0.91009738  0.04888989    -0.17600
H2453       H  0.77490322  0.89530501  0.90910565     0.15300
H2454       H  0.72674553  0.94579700  0.90895073     0.15300
H2455       H  0.83328041  0.95563409  0.09393756     0.15300
H2456       H  0.78495500  0.00581015  0.09400349     0.15300
H2457       H  0.86723891  0.84713653  0.97659561     0.13600
H2458       H  0.87199566  0.85168080  0.02804356     0.13600
H2459       H  0.68496964  0.54643100  0.97545805     0.13600
H2460       H  0.68798318  0.55009413  0.02690610     0.13600
H2461       H  0.78304511  0.95386083  0.98045454     0.26900
H2462       H  0.77365008  0.94428915  0.02419497     0.26900
C2463       C  0.88403882  0.85733033  0.85747968     0.03800
C2464       C  0.86411836  0.83474131  0.84140173    -0.12300
C2465       C  0.87559807  0.82495070  0.81635474     0.01300
C2466       C  0.90554502  0.84104245  0.80606312    -0.10800
C2467       C  0.92471039  0.86554130  0.82109968     0.03800
C2468       C  0.91486017  0.87209265  0.84721689    -0.10300
H2469       H  0.83979576  0.82412329  0.84866092     0.09400
H2470       H  0.91377819  0.83490912  0.78625289     0.07000
H2471       H  0.93104729  0.88890175  0.85944420     0.06800
C2472       C  0.92453340  0.60556250  0.85989191     0.03800
C2473       C  0.89393933  0.61902192  0.84813100    -0.12300
C2474       C  0.88527856  0.60947389  0.82225226     0.01300
C2475       C  0.90509676  0.58341465  0.80924889    -0.10800
C2476       C  0.93388051  0.56767104  0.82137555     0.03800
C2477       C  0.94384636  0.57917863  0.84642297    -0.10300
H2478       H  0.87884477  0.63948112  0.85804873     0.09400
H2479       H  0.89901343  0.57652112  0.78908112     0.07000
H2480       H  0.96810892  0.56955106  0.85453310     0.06800
C2481       C  0.67973758  0.55860993  0.85798341     0.03800
C2482       C  0.69560283  0.58973329  0.84743944    -0.12300
C2483       C  0.68779152  0.60168756  0.82193807     0.01300
C2484       C  0.66117103  0.58478565  0.80791891    -0.10800
C2485       C  0.64377085  0.55489025  0.81856213     0.03800
C2486       C  0.65415159  0.54107144  0.84311353    -0.10300
H2487       H  0.71479927  0.60401184  0.85885946     0.09400
H2488       H  0.65442304  0.59461872  0.78849845     0.07000
H2489       H  0.64237517  0.51653610  0.85062506     0.06800
C2490       C  0.65011109  0.82857892  0.86054233     0.03800
C2491       C  0.63509911  0.85874196  0.84797821    -0.12300
C2492       C  0.63949485  0.86413870  0.82088261     0.01300
C2493       C  0.66348235  0.84304832  0.80721156    -0.10800
C2494       C  0.68259633  0.81641009  0.82045881     0.03800
C2495       C  0.67504672  0.80843470  0.84681683    -0.10300
H2496       H  0.61649691  0.87508675  0.85850191     0.09400
H2497       H  0.66682360  0.84693346  0.78621598     0.07000
H2498       H  0.68655685  0.78470655  0.85585035     0.06800
C2499       C  0.64851999  0.59477728  0.64006351     0.03800
C2500       C  0.67365320  0.61395394  0.65426540    -0.12300
C2501       C  0.68156313  0.60430242  0.68022749     0.01300
C2502       C  0.66306304  0.57641125  0.69249800    -0.10800
C2503       C  0.63871509  0.55643846  0.67833378     0.03800
C2504       C  0.63345465  0.56394539  0.65160899    -0.10300
H2505       H  0.68489384  0.63832612  0.64598155     0.09400
H2506       H  0.66668647  0.57109298  0.71330958     0.07000
H2507       H  0.61426003  0.54874147  0.64080172     0.06800
C2508       C  0.88600711  0.56115755  0.64216069     0.03800
C2509       C  0.91593966  0.54775933  0.65412757    -0.12300
C2510       C  0.92391260  0.55632358  0.68016227     0.01300
C2511       C  0.90371740  0.58195615  0.69341982    -0.10800
C2512       C  0.87440390  0.59707514  0.68112291     0.03800
C2513       C  0.86501249  0.58536420  0.65594712    -0.10300
H2514       H  0.93262619  0.52983903  0.64316119     0.09400
H2515       H  0.91042307  0.58960230  0.71330193     0.07000
H2516       H  0.84163822  0.59537219  0.64673916     0.06800
C2517       C  0.85689098  0.79686927  0.80166875     0.43200
N2518       N  0.82313844  0.75211231  0.79437903     0.02100
C2519       C  0.82235557  0.64284901  0.68456868    -0.05800
H2520       H  0.81061761  0.77973953  0.66283473     0.07500
C2521       C  0.69345513  0.77345969  0.71702565    -0.06200
Co2522     Co  0.84451302  0.71107504  0.74677505     0.74200
N2523       N  0.81757797  0.74911054  0.69887781    -0.25400
Co2524     Co  0.77865683  0.70971001  0.70066951     0.74100
C2525       C  0.70310382  0.78995834  0.69194517     0.43300
N2526       N  0.72161389  0.75113756  0.77966732     0.01700
N2527       N  0.73986072  0.74871100  0.70182424     0.01800
N2528       N  0.86497272  0.64457465  0.71506623    -0.46200
H2529       H  0.89006550  0.78395658  0.76523643     0.07500
N2530       N  0.84183161  0.74981101  0.71711616     0.02100
N2531       N  0.74012604  0.67023644  0.70374366     0.01800
C2532       C  0.70454999  0.62730963  0.69578316     0.43400
N2533       N  0.74608642  0.75130071  0.79776166    -0.24800
C2534       C  0.86966759  0.64691181  0.78088562    -0.05700
N2535       N  0.82907698  0.77875708  0.81097980    -0.45900
N2536       N  0.73220387  0.64538039  0.68611648    -0.46100
C2537       C  0.86107539  0.63164479  0.80651266     0.43200
N2538       N  0.84212180  0.67077122  0.71856422     0.02000
N2539       N  0.74671273  0.67319616  0.79970704    -0.24800
N2540       N  0.84569794  0.75131419  0.77495646    -0.25300
N2541       N  0.72182764  0.67263911  0.78195311     0.01700
H2542       H  0.75544345  0.64256280  0.83537614     0.07600
H2543       H  0.67302087  0.63894709  0.73305750     0.07600
N2544       N  0.81710282  0.67044885  0.70094380    -0.25400
N2545       N  0.71753096  0.74836942  0.72143092    -0.25000
N2546       N  0.82446056  0.67332472  0.79679454     0.02100
C2547       C  0.85654717  0.79218853  0.69037727     0.43400
C2548       C  0.73864874  0.77699923  0.81535003    -0.06200
N2549       N  0.71839011  0.67034197  0.72374359    -0.25000
H2550       H  0.67128579  0.77813121  0.72949069     0.07600
N2551       N  0.86548445  0.77486898  0.71271528    -0.46200
H2552       H  0.75299857  0.78240166  0.83314869     0.07600
C2553       C  0.70763240  0.63118904  0.80944615     0.43300
C2554       C  0.86811625  0.77856861  0.77783510    -0.05700
Co2555     Co  0.78524023  0.71244559  0.79778014     0.73800
N2556       N  0.69734349  0.77563297  0.78385793    -0.45900
C2557       C  0.85409045  0.62562074  0.69407360     0.43600
N2558       N  0.83315216  0.64984589  0.81557032    -0.45900
Co2559     Co  0.71938769  0.71061608  0.75173716     0.73900
C2560       C  0.69523164  0.64390094  0.72061291    -0.06200
C2561       C  0.82494855  0.77470045  0.68075411    -0.05800
N2562       N  0.84605307  0.67266618  0.77671385    -0.25300
N2563       N  0.73218169  0.77325821  0.68357920    -0.46100
H2564       H  0.80624606  0.63636670  0.66788313     0.07600
C2565       C  0.74009440  0.64777297  0.81798166    -0.06200
Cl2566     Cl  0.78192881  0.71095118  0.74924326    -0.49200
C2567       C  0.70655785  0.79333623  0.80580441     0.43300
H2568       H  0.89183921  0.64165557  0.76851394     0.07500
N2569       N  0.69801427  0.64795220  0.78701985    -0.45900
C2570       C  0.92168713  0.82049297  0.63927650     0.03800
C2571       C  0.94105686  0.84579090  0.65371994    -0.12300
C2572       C  0.93094652  0.85578466  0.67912334     0.01300
C2573       C  0.90175659  0.83956258  0.69044296    -0.10800
C2574       C  0.88156118  0.81506584  0.67611076     0.03800
C2575       C  0.89067908  0.80697947  0.65010854    -0.10300
H2576       H  0.96540340  0.85573260  0.64598155     0.09400
H2577       H  0.89540817  0.84504894  0.71079289     0.07000
H2578       H  0.87566080  0.78729962  0.63932637     0.06800
C2579       C  0.68019309  0.86396577  0.64242512     0.03800
C2580       C  0.69477174  0.83219943  0.65338978    -0.12300
C2581       C  0.68530992  0.82032981  0.67864565     0.01300
C2582       C  0.65865096  0.83807351  0.69185363    -0.10800
C2583       C  0.64240709  0.86826421  0.68094056     0.03800
C2584       C  0.65438574  0.88221795  0.65685420    -0.10300
H2585       H  0.71381138  0.81694296  0.64249620     0.09400
H2586       H  0.65060111  0.82854754  0.71096033     0.07000
H2587       H  0.64343104  0.90715424  0.64931251     0.06800
C2588       C  0.95353969  0.87904973  0.69513905     0.43200
N2589       N  0.99378834  0.91694202  0.70425101     0.02100
C2590       C  0.59724074  0.91921448  0.81585704    -0.05800
H2591       H  0.96525400  0.93472389  0.83455997     0.07500
C2592       C  0.97197238  0.55389852  0.78071843    -0.06200
Co2593     Co  0.53271850  0.89528861  0.75279174     0.74200
N2594       N  0.99590608  0.92420713  0.79997280    -0.25400
Co2595     Co  0.53341364  0.96462170  0.79845862     0.74100
C2596       C  0.95669597  0.54419051  0.80590910     0.43300
N2597       N  0.99511003  0.52462251  0.71859210     0.01700
N2598       N  0.99617843  0.50568743  0.79662452     0.01800
N2599       N  0.59711774  0.87539867  0.78511721    -0.46200
H2600       H  0.96468825  0.84534241  0.73235331     0.07500
N2601       N  0.99565056  0.89785523  0.78258994     0.02100
N2602       N  0.57139469  0.50407344  0.79590342     0.01800
C2603       C  0.61483356  0.53805938  0.80417023     0.43400
N2604       N  0.99446847  0.49794924  0.70150479    -0.24800
C2605       C  0.59643596  0.87189459  0.71925699    -0.05700
N2606       N  0.97047665  0.90861439  0.68613237    -0.45900
N2607       N  0.59658242  0.50942286  0.81304638    -0.46100
C2608       C  0.61278141  0.88452066  0.69486904     0.43200
N2609       N  0.57148161  0.89861203  0.78130223     0.02000
N2610       N  0.56951777  0.49713143  0.70029789    -0.24800
N2611       N  0.99416236  0.89363764  0.72403903    -0.25300
N2612       N  0.57096051  0.52278234  0.71812740     0.01700
H2613       H  0.60039451  0.48576090  0.66591453     0.07600
H2614       H  0.60452019  0.57309930  0.76719958     0.07600
N2615       N  0.57103221  0.92448446  0.79901016    -0.25400
N2616       N  0.99635766  0.52887573  0.77676159    -0.25000
N2617       N  0.56902598  0.91781474  0.70331588     0.02100
C2618       C  0.95458275  0.88444272  0.80923917     0.43400
C2619       C  0.96846618  0.50341113  0.68469216    -0.06200
N2620       N  0.57168286  0.52764757  0.77634475    -0.25000
H2621       H  0.96730903  0.57738723  0.76843093     0.07600
N2622       N  0.97120265  0.87362135  0.78732585    -0.46200
H2623       H  0.96208141  0.48617339  0.66831445     0.07600
C2624       C  0.61383859  0.53375257  0.69261984     0.43300
C2625       C  0.96930496  0.86895421  0.72019050    -0.05700
Co2626     Co  0.53148280  0.95746717  0.70176692     0.73800
N2627       N  0.97035647  0.54881335  0.71435893    -0.45900
C2628       C  0.61486746  0.88701650  0.80631960     0.43600
N2629       N  0.59417981  0.91290993  0.68604033    -0.45900
Co2630     Co  0.53353440  0.52677636  0.74734523     0.73900
C2631       C  0.59826676  0.55039609  0.77982666    -0.06200
C2632       C  0.97084115  0.91807852  0.81769141    -0.05800
N2633       N  0.56971143  0.89428110  0.72288891    -0.25300
N2634       N  0.97335387  0.51446850  0.81498779    -0.46100
H2635       H  0.60298689  0.93565889  0.83279791     0.07600
C2636       C  0.59530757  0.50214616  0.68301009    -0.06200
Cl2637     Cl  0.53256732  0.96101198  0.75010785    -0.49200
C2638       C  0.95263697  0.53716680  0.69318413     0.43300
H2639       H  0.60315995  0.84956928  0.73209307     0.07500
N2640       N  0.59693025  0.54540346  0.71414949    -0.45900
C2641       C  0.69158038  0.54316198  0.88379375    -0.04600
C2642       C  0.66751890  0.53155818  0.90320792    -0.01700
C2643       C  0.67915450  0.51357123  0.92617120     0.03200
C2644       C  0.71488257  0.51136552  0.93164990    -0.04600
C2645       C  0.73878586  0.52561844  0.91328019    -0.01700
C2646       C  0.72740357  0.53887248  0.88882209     0.03200
C2647       C  0.63080000  0.53826212  0.89987680     0.37900
C2648       C  0.77554443  0.52535168  0.91910194     0.37900
C2649       C  0.75285394  0.54550672  0.86832296     0.36300
C2650       C  0.65445885  0.49599839  0.94350063     0.36300
N2651       N  0.77319429  0.55053400  0.85200608    -0.38500
N2652       N  0.63483467  0.48186629  0.95733619    -0.38500
N2653       N  0.80487126  0.02538053  0.92358282    -0.38000
N2654       N  0.60148167  0.54359496  0.89731669    -0.38000
C2655       C  0.83865674  0.88414946  0.93265550    -0.04600
C2656       C  0.85624747  0.91084212  0.91790056    -0.01700
C2657       C  0.87056021  0.90252460  0.89327111     0.03200
C2658       C  0.87141872  0.86621340  0.88457353    -0.04600
C2659       C  0.85775676  0.83868413  0.90128460    -0.01700
C2660       C  0.83951504  0.84792887  0.92434051     0.03200
C2661       C  0.85917653  0.94727465  0.92807019     0.37900
C2662       C  0.86269679  0.80079070  0.89504689     0.37900
C2663       C  0.82081293  0.82043433  0.93899560     0.36300
C2664       C  0.88221807  0.93201103  0.87650062     0.36300
N2665       N  0.80585772  0.79848866  0.95066789    -0.38500
N2666       N  0.89142675  0.95571342  0.86327596    -0.38500
N2667       N  0.86671669  0.77058182  0.89009980    -0.38000
N2668       N  0.86203713  0.97607710  0.93649736    -0.38000
C2669       C  0.63380667  0.61109071  0.61549728    -0.04600
C2670       C  0.65598543  0.62488121  0.59569576    -0.01700
C2671       C  0.64266874  0.64741738  0.57560111     0.03200
C2672       C  0.60650022  0.65176595  0.57274040    -0.04600
C2673       C  0.58415038  0.63430688  0.59071096    -0.01700
C2674       C  0.59758663  0.61652640  0.61297778     0.03200
C2675       C  0.69235638  0.61511562  0.59562694     0.37900
C2676       C  0.54710954  0.63415025  0.58611915     0.37900
C2677       C  0.57378696  0.60580696  0.63371341     0.36300
C2678       C  0.66626547  0.66661387  0.55830527     0.36300
N2679       N  0.55463169  0.59740990  0.65014535    -0.38500
N2680       N  0.68525915  0.68200547  0.54466965    -0.38500
N2681       N  0.51762998  0.63347613  0.58229897    -0.38000
N2682       N  0.72122463  0.60679128  0.59555769    -0.38000
C2683       C  0.93670634  0.80467122  0.61469164    -0.04600
C2684       C  0.94938393  0.82748861  0.59438450    -0.01700
C2685       C  0.96869312  0.81293945  0.57336849     0.03200
C2686       C  0.97335354  0.77517184  0.57134609    -0.04600
C2687       C  0.95770865  0.75217139  0.59011000    -0.01700
C2688       C  0.94103657  0.76670173  0.61230954     0.03200
C2689       C  0.94243224  0.86601619  0.59499257     0.37900
C2690       C  0.95815885  0.71336389  0.58626137     0.37900
C2691       C  0.93023339  0.74228772  0.63322528     0.36300
C2692       C  0.98426107  0.83693200  0.55405544     0.36300
N2693       N  0.92175836  0.72265471  0.64983380    -0.38500
N2694       N  0.99662025  0.85606053  0.53860401    -0.38500
N2695       N  0.45779599  0.68245733  0.58299041    -0.38000
N2696       N  0.93684936  0.89674204  0.59549976    -0.38000
C2697       C  0.60689602  0.77836195  0.93043847    -0.04600
C2698       C  0.64313882  0.78224345  0.92791547    -0.01700
C2699       C  0.65719376  0.80147712  0.90628942     0.03200
C2700       C  0.63532208  0.81415802  0.88579746    -0.04600
C2701       C  0.59892260  0.81022063  0.88867028    -0.01700
C2702       C  0.58503614  0.79465719  0.91160745     0.03200
C2703       C  0.66598888  0.76654787  0.94753457     0.37900
C2704       C  0.57523343  0.81989936  0.86758494     0.37900
C2705       C  0.54792601  0.79570102  0.91600440     0.36300
C2706       C  0.69413376  0.80839183  0.90533160     0.36300
N2707       N  0.51843659  0.79696245  0.91974016    -0.38500
N2708       N  0.72359601  0.81389690  0.90460269    -0.38500
N2709       N  0.55611453  0.82754914  0.85093228    -0.38000
N2710       N  0.68419330  0.75441967  0.96336826    -0.38000
C2711       C  0.93939047  0.62229949  0.88430977    -0.04600
C2712       C  0.95255769  0.60020565  0.90492406    -0.01700
C2713       C  0.97176412  0.61560197  0.92570885     0.03200
C2714       C  0.97560813  0.65351192  0.92739074    -0.04600
C2715       C  0.95974198  0.67574184  0.90823385    -0.01700
C2716       C  0.94331195  0.66038750  0.88619530     0.03200
C2717       C  0.94592237  0.56158236  0.90504696     0.37900
C2718       C  0.95941523  0.71464271  0.91158412     0.37900
C2719       C  0.93211244  0.68418054  0.86502458     0.36300
C2720       C  0.98791784  0.59232662  0.94522006     0.36300
N2721       N  0.92324740  0.70334607  0.84824017    -0.38500
N2722       N  0.00081078  0.57364739  0.96072073    -0.38500
N2723       N  0.95837145  0.74563299  0.91436164    -0.38000
N2724       N  0.94053414  0.53080293  0.90513797    -0.38000
C2725       C  0.85011817  0.52436156  0.56690661    -0.04600
C2726       C  0.85366000  0.56168962  0.57143364    -0.01700
C2727       C  0.86739379  0.57380682  0.59545758     0.03200
C2728       C  0.87586842  0.54855343  0.61554184    -0.04600
C2729       C  0.87382196  0.51103679  0.61026640    -0.01700
C2730       C  0.86251356  0.49922516  0.58557327     0.03200
C2731       C  0.84235173  0.58753403  0.55165410     0.37900
C2732       C  0.88123410  0.48426058  0.63053868     0.37900
C2733       C  0.86318242  0.96102633  0.57935968     0.36300
C2734       C  0.87260149  0.61223297  0.59945360     0.36300
N2735       N  0.86438914  0.93062354  0.57429719    -0.38500
N2736       N  0.87666507  0.64288967  0.60263577    -0.38500
N2737       N  0.88712570  0.96277551  0.64657749    -0.38000
N2738       N  0.83347577  0.60813132  0.53580457    -0.38000
C2739       C  0.69240659  0.87855655  0.61626197    -0.04600
C2740       C  0.66848664  0.89170549  0.59716430    -0.01700
C2741       C  0.68039323  0.90930748  0.57408408     0.03200
C2742       C  0.71599126  0.90966568  0.56806280    -0.04600
C2743       C  0.73940890  0.89263774  0.58547956    -0.01700
C2744       C  0.72824715  0.87996067  0.61021654     0.03200
C2745       C  0.63159046  0.88645927  0.60070454     0.37900
C2746       C  0.77524444  0.88790608  0.57775002     0.35900
C2747       C  0.75424456  0.87063476  0.62972973     0.36300
C2748       C  0.65609217  0.92767085  0.55685981     0.36300
N2749       N  0.77520942  0.86340050  0.64514745    -0.38500
N2750       N  0.63673536  0.94238828  0.54311266    -0.38500
N2751       N  0.80359201  0.88341798  0.57128016    -0.38000
N2752       N  0.60215245  0.88218835  0.60347996    -0.38000
C2753       C  0.69210632  0.55747407  0.11514401    -0.04600
C2754       C  0.70582201  0.57821163  0.09400596    -0.01700
C2755       C  0.72315095  0.56112676  0.07299907     0.03200
C2756       C  0.72307087  0.52303186  0.07100764    -0.04600
C2757       C  0.70729132  0.50229527  0.09111251    -0.01700
C2758       C  0.69398038  0.51914652  0.11372586     0.03200
C2759       C  0.70215562  0.61721566  0.09367468     0.37900
C2760       C  0.70536968  0.96320993  0.08876394     0.37900
C2761       C  0.68458158  0.49656724  0.13608863     0.36300
C2762       C  0.74186149  0.58281495  0.05385537     0.36300
N2763       N  0.67726840  0.47845040  0.15388541    -0.38500
N2764       N  0.75671767  0.60015069  0.03856546    -0.38500
N2765       N  0.70377314  0.93210632  0.08680347    -0.38000
N2766       N  0.69944696  0.64836182  0.09351440    -0.38000
C2767       C  0.61243135  0.65523958  0.43440172    -0.04600
C2768       C  0.60331653  0.62020724  0.42612330    -0.01700
C2769       C  0.61900527  0.60540073  0.40361536     0.03200
C2770       C  0.63769613  0.62813335  0.38596347    -0.04600
C2771       C  0.64637285  0.66358898  0.39459989    -0.01700
C2772       C  0.63761634  0.67461278  0.42017325     0.03200
C2773       C  0.57696187  0.59981262  0.44008184     0.37900
C2774       C  0.66033199  0.69071701  0.37682287     0.37900
C2775       C  0.65167536  0.70781420  0.43087648     0.36300
C2776       C  0.61616435  0.56680153  0.39919908     0.36300
N2777       N  0.66281572  0.73410666  0.43969086    -0.38500
N2778       N  0.61391112  0.53599519  0.39575947    -0.38500
N2779       N  0.67102010  0.71285024  0.36283309    -0.38000
N2780       N  0.55584279  0.58352575  0.45109975    -0.38000
C2781       C  0.89129111  0.55803125  0.38607316    -0.04600
C2782       C  0.88701780  0.51991087  0.38729396    -0.01700
C2783       C  0.87133402  0.50350720  0.40936221     0.03200
C2784       C  0.85654200  0.52494424  0.42928303    -0.04600
C2785       C  0.86151899  0.56287993  0.42851367    -0.01700
C2786       C  0.87983830  0.57913081  0.40748884     0.03200
C2787       C  0.89645011  0.49734589  0.36517990     0.37900
C2788       C  0.84706250  0.58545950  0.44898195     0.37900
C2789       C  0.88672081  0.61768861  0.40788381     0.36300
C2790       C  0.86946650  0.96436106  0.41122826     0.36300
N2791       N  0.89216838  0.64844205  0.40826220    -0.38500
N2792       N  0.86782234  0.93317725  0.41273551    -0.38500
N2793       N  0.83576025  0.60352032  0.46536609    -0.38000
N2794       N  0.90386762  0.47926853  0.34757474    -0.38000
C2795       C  0.63493318  0.80547003  0.11574628    -0.04600
C2796       C  0.61649967  0.82844910  0.09818886    -0.01700
C2797       C  0.59859758  0.81364581  0.07662158     0.03200
C2798       C  0.60508478  0.77766524  0.06895303    -0.04600
C2799       C  0.62916494  0.75693044  0.08341947    -0.01700
C2800       C  0.64059142  0.76897728  0.10814503     0.03200
C2801       C  0.61674840  0.86736448  0.10160626     0.37900
C2802       C  0.64005179  0.72199733  0.07357966     0.37900
C2803       C  0.65493668  0.74248116  0.12628287     0.36300
C2804       C  0.57267711  0.83512407  0.06306651     0.36300
N2805       N  0.66598904  0.72111791  0.14074993    -0.38500
N2806       N  0.55182499  0.85231766  0.05247141    -0.38500
N2807       N  0.64834455  0.69429706  0.06525470    -0.38000
N2808       N  0.61735029  0.89842452  0.10417864    -0.38000
C2809       C  0.94366480  0.62912398  0.11343882    -0.04600
C2810       C  0.95395267  0.60581879  0.09290339    -0.01700
C2811       C  0.96674416  0.62036961  0.06911942     0.03200
C2812       C  0.96725953  0.65816859  0.06514596    -0.04600
C2813       C  0.95272782  0.68110940  0.08421127    -0.01700
C2814       C  0.94288078  0.66701616  0.10879807     0.03200
C2815       C  0.95169227  0.56690584  0.09623327     0.37900
C2816       C  0.95016757  0.71971218  0.07905011     0.37900
C2817       C  0.93458746  0.69204760  0.12976705     0.36300
C2818       C  0.48066613  0.59655417  0.04920695     0.36300
N2819       N  0.92807198  0.71208491  0.14642803    -0.38500
N2820       N  0.49164515  0.57759408  0.03324319    -0.38500
N2821       N  0.94813128  0.75044510  0.07490408    -0.38000
N2822       N  0.94990595  0.53586127  0.09888385    -0.38000
C2823       C  0.71567614  0.90544176  0.42877920    -0.04600
C2824       C  0.69236220  0.92433513  0.41241665    -0.01700
C2825       C  0.68034433  0.90838592  0.38908820     0.03200
C2826       C  0.68604065  0.87089129  0.38437676    -0.04600
C2827       C  0.70500268  0.85063659  0.40330600    -0.01700
C2828       C  0.72178986  0.86833360  0.42421689     0.03200
C2829       C  0.68241974  0.96111282  0.41886235     0.37900
C2830       C  0.70737807  0.81157046  0.40148775     0.37900
C2831       C  0.74563633  0.84829404  0.44086518     0.36300
C2832       C  0.66500521  0.93190685  0.36928949     0.36300
N2833       N  0.76448096  0.83214542  0.45417275    -0.38500
N2834       N  0.65296082  0.95094364  0.35360881    -0.38500
N2835       N  0.70945198  0.78044222  0.39996043    -0.38000
N2836       N  0.67476692  0.99045168  0.42406217    -0.38000
C2837       C  0.88550872  0.86147183  0.11483220    -0.04600
C2838       C  0.84868017  0.86158994  0.11361777    -0.01700
C2839       C  0.83154869  0.87492215  0.09114334     0.03200
C2840       C  0.85038577  0.89187033  0.07078415    -0.04600
C2841       C  0.88691723  0.89246882  0.07200388    -0.01700
C2842       C  0.90436472  0.87549517  0.09315881     0.03200
C2843       C  0.82772308  0.84960909  0.13573385     0.37900
C2844       C  0.90659111  0.91095058  0.05168914     0.37900
C2845       C  0.94167176  0.87151074  0.09212904     0.36300
C2846       C  0.79415190  0.87174630  0.08911366     0.36300
N2847       N  0.97140098  0.86803807  0.09116190    -0.38500
N2848       N  0.76440234  0.86914654  0.08741328    -0.38500
N2849       N  0.92226943  0.92554918  0.03540266    -0.38000
N2850       N  0.81073631  0.83986229  0.15313329    -0.38000
C2851       C  0.95013962  0.80200525  0.38460708    -0.04600
C2852       C  0.95304479  0.76418090  0.38896757    -0.01700
C2853       C  0.96427903  0.75076102  0.41343185     0.03200
C2854       C  0.97624517  0.77471157  0.43290016    -0.04600
C2855       C  0.97279050  0.81236319  0.42897861    -0.01700
C2856       C  0.95870827  0.82594185  0.40525169     0.03200
C2857       C  0.94665339  0.73873782  0.36788777     0.37900
C2858       C  0.48482366  0.83712346  0.44897884     0.37900
C2859       C  0.95291146  0.86450576  0.40225120     0.36300
C2860       C  0.96545213  0.71198143  0.41814630     0.36300
N2861       N  0.94826147  0.89527102  0.39988568    -0.38500
N2862       N  0.96669043  0.68113093  0.42197118    -0.38500
N2863       N  0.49438734  0.85675753  0.46502913    -0.38000
N2864       N  0.94154953  0.71838834  0.35114939    -0.38000
loop_ 
_geom_bond_atom_site_label_1 
_geom_bond_atom_site_label_2 
_geom_bond_distance 
_geom_bond_site_symmetry_2 
_ccdc_geom_bond_type 
C1            C2   1.409       .  A
C1            C6   1.402       .  A
C1          C703   1.496       .  S
C2            C3   1.408       .  A
C2            H7   1.083       .  S
C3            C4   1.403       .  A
C3           C37   1.479       .  S
C4            C5   1.399       .  A
C4            H8   1.082       .  S
C5            C6   1.397       .  A
C5          C156   1.472       .  S
C6            H9   1.082       .  S
C10          C11   1.412       .  A
C10          C15   1.406       .  A
C10         C689   1.504       .  S
C11          C12   1.405       .  A
C11          H16   1.083       .  S
C12          C13   1.400       .  A
C12          C67   1.472       .  S
C13          C14   1.401       .  A
C13          H17   1.084       .  S
C14          C15   1.400       .  A
C14         C126   1.473       .  S
C15          H18   1.083       .  S
C19          C20   1.407       .  A
C19          C24   1.411       .  A
C19         C678   1.506       .  S
C20          C21   1.401       .  A
C20          H25   1.082       .  S
C21          C22   1.405       .  A
C21          C87   1.473       .  S
C22          C23   1.401       .  A
C22          H26   1.084       .  S
C23          C24   1.401       .  A
C23         C166   1.473       .  S
C24          H27   1.082       .  S
C28          C29   1.406       .  A
C28          C33   1.397       .  A
C28         C661   1.492       .  S
C29          C30   1.407       .  A
C29          H34   1.082       .  S
C30          C31   1.406       .  A
C30          C77   1.476       .  S
C31          C32   1.400       .  A
C31          H35   1.084       .  S
C32          C33   1.397       .  A
C32         C176   1.470       .  S
C33          H36   1.083       .  S
C37          C74   1.462       .  S
C37        N1487   1.351       .  A
N38          N55   1.326       .  A
N38        N1492   1.320       .  A
N38         Co75   2.080   1_655  S
C39        C1509   1.463   1_455  S
C39          H84   1.081       .  S
C39         N780   1.340       .  A
H40          C81   1.082   1_455  S
C41          C45   1.459       .  S
C41          H70   1.081       .  S
C41          N65   1.335       .  A
Co42         N60   2.087       .  S
Co42         N50   2.081       .  S
Co42         N82   2.078       .  S
Co42         N58   2.085       .  S
Co42      Cl1518   2.422       .  S
N43          C81   1.344   1_455  A
N43        N1482   1.321   1_455  A
N43         Co44   2.091       .  S
Co44         N47   2.096       .  S
Co44         N64   2.082       .  S
Co44         N51   2.094       .  S
Co44        Cl86   2.477       .  S
C45          C94   1.484       .  S
C45          N83   1.356       .  A
N46          N53   1.318       .  A
N46          N76   1.322       .  A
N46         Co79   2.079       .  S
N47          N65   1.319       .  A
N47          N83   1.329       .  A
N48          C77   1.350       .  A
N48         N774   1.323       .  A
H49          C74   1.081       .  S
N50          N71   1.323       .  A
N50        N1475   1.321       .  A
N51          N69   1.319       .  A
N51         N772   1.327       .  A
C52          C80   1.459       .  S
C52         C121   1.476       .  S
C52          N56   1.353       .  A
N53          C68   1.344       .  A
N53         Co75   2.089       .  S
C54          C57   1.457       .  S
C54          H88   1.082       .  S
C54         N798   1.335       .  A
N55        C1469   1.351       .  A
N56         N767   1.327       .  A
C57         C103   1.473       .  S
C57        N1510   1.353       .  A
N58         N764   1.323       .  A
N58        N1496   1.320       .  A
N59         C801   1.342       .  A
N59          N61   1.319       .  A
N59         Co75   2.082       .  S
N60          C74   1.338       .  A
N60        N1470   1.320       .  A
N61         N805   1.324       .  A
N61         Co79   2.088       .  S
H62          C85   1.081       .  S
H63          C80   1.082       .  S
N64         C755   1.340       .  A
N64        N1490   1.320   1_455  A
N65         Co79   2.078       .  S
N66         N794   1.328       .  A
N66        N1514   1.319       .  A
N66         Co75   2.087   1_655  S
C67        C1513   1.462       .  S
C67          N71   1.347       .  A
C68          C87   1.467       .  S
C68          H72   1.082       .  S
N69         C796   1.338       .  A
N69         Co79   2.080       .  S
C73          C85   1.463       .  S
C73         C112   1.480       .  S
C73          N89   1.351       .  A
Co75        Cl86   2.478       .  S
N76          C87   1.348       .  A
C77        C1471   1.463       .  S
N78        C1489   1.353       .  A
N78         N782   1.328       .  A
Co79        Cl86   2.422       .  S
C80         N785   1.338       .  A
C81        C1499   1.462       .  S
N82         C770   1.335       .  A
N82        N1498   1.319       .  A
C85         N775   1.342       .  A
Cl86      Co1474   2.422   1_455  S
N89         N777   1.324       .  A
C90          C91   1.409       .  A
C90          C95   1.415       .  A
C90         C647   1.507       .  S
C91          C92   1.400       .  A
C91          H96   1.082       .  S
C92          C93   1.399       .  A
C92         C146   1.477       .  S
C93          C94   1.403       .  A
C93          H97   1.079       .  S
C94          C95   1.404       .  A
C95          H98   1.082       .  S
C99         C100   1.410       .  A
C99         C104   1.410       .  A
C99         C633   1.501       .  S
C100        C101   1.403       .  A
C100        H105   1.084       .  S
C101        C102   1.397       .  A
C101        C134   1.470       .  S
C102        C103   1.399       .  A
C102        H106   1.085       .  S
C103        C104   1.403       .  A
C104        H107   1.083       .  S
C108        C109   1.408       .  A
C108        C113   1.414       .  A
C108        C622   1.511       .  S
C109        C110   1.400       .  A
C109        H114   1.081       .  S
C110        C111   1.399       .  A
C110        C141   1.472       .  S
C111        C112   1.400       .  A
C111        H115   1.083       .  S
C112        C113   1.405       .  A
C113        H116   1.080       .  S
C117        C118   1.410       .  A
C117        C122   1.411       .  A
C117        C605   1.507       .  S
C118        C119   1.401       .  A
C118        H123   1.083       .  S
C119        C120   1.400       .  A
C119        C162   1.470       .  S
C120        C121   1.401       .  A
C120        H124   1.084       .  S
C121        C122   1.404       .  A
C122        H125   1.083       .  S
C126        C163   1.460       .  S
C126        N144   1.352       .  A
N127        N144   1.326       .  A
N127        N149   1.319       .  A
N127       Co164   2.090       .  S
C128        C166   1.462       .  S
C128        H173   1.081       .  S
C128        N153   1.342       .  A
H129        C170   1.081       .  S
C130        C134   1.456       .  S
C130        H159   1.082       .  S
C130        N154   1.337       .  A
Co131       N149   2.082       .  S
Co131       N139   2.077       .  S
Co131       N171   2.076       .  S
Co131       N147   2.086       .  S
Co131      Cl175   2.436       .  S
N132        C170   1.338       .  A
N132        N139   1.318       .  A
N132       Co133   2.073       .  S
Co133       N136   2.091       .  S
Co133       N153   2.097       .  S
Co133       N140   2.080       .  S
Co133      Cl175   2.466       .  S
C134        N172   1.351       .  A
N135        N142   1.318       .  A
N135        N165   1.326       .  A
N135       Co168   2.082       .  S
N136        N154   1.321       .  A
N136        N172   1.327       .  A
N137        C166   1.348       .  A
N137        N147   1.326       .  A
H138        C163   1.082       .  S
N139        N160   1.323       .  A
N140        N158   1.319       .  A
N140        N145   1.324       .  A
C141        C169   1.457       .  S
C141        N145   1.351       .  A
N142        C157   1.332       .  A
N142       Co164   2.063       .  S
C143        C146   1.458       .  S
C143        H177   1.081       .  S
C143        N171   1.337       .  A
C146        N167   1.352       .  A
N147        N153   1.322       .  A
N148        C174   1.344       .  A
N148        N150   1.322       .  A
N148       Co164   2.095       .  S
N149        C163   1.338       .  A
N150        N178   1.322       .  A
N150       Co168   2.081       .  S
H151        C174   1.081       .  S
H152        C169   1.081       .  S
N154       Co168   2.080       .  S
N155        N167   1.326       .  A
N155        N171   1.319       .  A
N155       Co164   2.084       .  S
C156        C170   1.460       .  S
C156        N160   1.348       .  A
C157        C176   1.455       .  S
C157        H161   1.081       .  S
N158        C169   1.338       .  A
N158       Co168   2.074       .  S
C162        C174   1.465       .  S
C162        N178   1.346       .  A
Co164      Cl175   2.467       .  S
N165        C176   1.351       .  A
Co168      Cl175   2.433       .  S
N179        C184   1.351       .  A
N179        C183   1.349       .  A
N179        H211   1.038       .  S
N180        C903   1.348       .  A
N180        C904   1.347       .  A
N181        C186   1.355       .  A
N181        C185   1.359       .  A
N181        H212   1.035       .  S
N182        C189   1.354       .  A
N182        C190   1.350       .  A
C183        C191   1.388       .  A
C183        C915   1.411       .  A
C184        C200   1.410       .  A
C184        C192   1.386       .  A
C185        C193   1.384       .  A
C185        C202   1.424       .  A
C186        C201   1.429       .  A
C186        C194   1.391       .  A
C187        C199   1.405       .  A
C187        C195   1.385       .  A
C187        N896   1.348       .  A
C188        C196   1.387       .  A
C188        C918   1.409       .  A
C188        N896   1.347       .  A
C189        C197   1.383       .  A
C189        C200   1.413       .  A
C190        C198   1.389       .  A
C190        C201   1.419       .  A
C191        C192   1.374       .  A
C191        H203   1.083       .  S
C192        H204   1.083       .  S
C193        C194   1.372       .  A
C193        H205   1.082       .  S
C194        H206   1.080       .  S
C195        C196   1.374       .  A
C195        H207   1.082       .  S
C196        H208   1.082       .  S
C197        C198   1.373       .  A
C197        H209   1.082       .  S
C198        H210   1.081       .  S
C199        C899   1.411   1_545  A
C199        C577   1.486       .  S
C200        C594   1.502       .  S
C201        C675   1.500       .  S
C202        C904   1.409       .  A
C202       C1352   1.506       .  S
N213        C218   1.356       .  A
N213        C217   1.352       .  A
N213        H245   1.035       .  S
N214        C221   1.348   1_556  A
N214        C222   1.350       .  A
N215        C220   1.353       .  A
N215        C219   1.357       .  A
N215        H246   1.036       .  S
N216        C223   1.352   1_556  A
N216        C224   1.350       .  A
C217        C225   1.386       .  A
C217       C1665   1.417   1_455  A
C218        C234   1.421       .  A
C218        C226   1.389       .  A
C219        C227   1.385       .  A
C219       C1668   1.419   1_455  A
C220        C235   1.421       .  A
C220        C228   1.388       .  A
C221        C233   1.408       .  A
C221        C229   1.386       .  A
C222        C236   1.410       .  A
C222        C230   1.386       .  A
C223        C231   1.386       .  A
C223        C234   1.413       .  A
C224        C232   1.386       .  A
C224        C235   1.413       .  A
C225        C226   1.368       .  A
C225        H237   1.082       .  S
C226        H238   1.080       .  S
C227        C228   1.379       .  A
C227        H239   1.082       .  S
C228        H240   1.082       .  S
C229        C230   1.375   1_554  A
C229        H241   1.082       .  S
C230        H242   1.082       .  S
C231        C232   1.372   1_554  A
C231        H243   1.081       .  S
C232        H244   1.082       .  S
C233       C1649   1.417       .  A
C233        C664   1.492       .  S
C234        C650   1.502       .  S
C235        C549   1.499       .  S
C236       C1651   1.419       .  A
C236        C566   1.504       .  S
N247        C252   1.353       .  A
N247        C251   1.352       .  A
N247        H279   1.038       .  S
N248       C1687   1.349   1_455  A
N248       C1688   1.349   1_455  A
N249        C254   1.353       .  A
N249        C253   1.354       .  A
N249        H280   1.039       .  S
N250        C257   1.351       .  A
N250        C258   1.349       .  A
C251        C259   1.385       .  A
C251       C1699   1.415   1_455  A
C252        C268   1.421       .  A
C252        C260   1.391       .  A
C253        C261   1.387       .  A
C253       C1702   1.419   1_455  A
C254        C269   1.420       .  A
C254        C262   1.387       .  A
C255        C267   1.409       .  A
C255        C263   1.385       .  A
C255       N1680   1.349       .  A
C256        C270   1.411       .  A
C256        C264   1.386       .  A
C256       N1680   1.349       .  A
C257        C265   1.386       .  A
C257        C268   1.412       .  A
C258        C266   1.387       .  A
C258        C269   1.413       .  A
C259        C260   1.367       .  A
C259        H271   1.082       .  S
C260        H272   1.079       .  S
C261        C262   1.378       .  A
C261        H273   1.082       .  S
C262        H274   1.082       .  S
C263        C264   1.376       .  A
C263        H275   1.082       .  S
C264        H276   1.082       .  S
C265        C266   1.372       .  A
C265        H277   1.082       .  S
C266        H278   1.082       .  S
C267       C1683   1.415       .  A
C267        C706   1.497       .  S
C268        C619   1.497       .  S
C269        C524   1.500       .  S
C270       C1685   1.419       .  A
C270        C538   1.501       .  S
N281        C286   1.352       .  A
N281        C285   1.353       .  A
N281        H313   1.036       .  S
N282        C289   1.349   1_554  A
N282        C290   1.347       .  A
N283        C288   1.357       .  A
N283        C287   1.357       .  A
N283        H314   1.037       .  S
N284       C1007   1.350   1_554  A
N284       C1008   1.349       .  A
C285        C293   1.385       .  A
C285        C301   1.412       .  A
C286        C294   1.388       .  A
C286       C1018   1.416       .  A
C287        C295   1.387       .  A
C287        C304   1.423       .  A
C288        C296   1.387       .  A
C288       C1019   1.422       .  A
C289        C301   1.408       .  A
C289        C297   1.383       .  A
C290        C304   1.414       .  A
C290        C298   1.388       .  A
C291        C299   1.385       .  A
C291        C302   1.415   1_545  A
C291       N1000   1.350   1_546  A
C292        C300   1.387       .  A
C292        C303   1.417       .  A
C292       N1000   1.349   1_545  A
C293        C294   1.371       .  A
C293        H305   1.083       .  S
C294        H306   1.083       .  S
C295        C296   1.373       .  A
C295        H307   1.082       .  S
C296        H308   1.082       .  S
C297        C298   1.373   1_556  A
C297        H309   1.081       .  S
C298        H310   1.081       .  S
C299        C300   1.374   1_556  A
C299        H311   1.081       .  S
C300        H312   1.081       .  S
C301        C507   1.494       .  S
C302       C1002   1.416       .  A
C302        C496   1.499   1_565  S
C303       C1004   1.422   1_545  A
C303        C608   1.505       .  S
C304        C692   1.500       .  S
C315        C316   1.404       .  A
C315        C320   1.410       .  A
C315        C510   1.501       .  S
C316        C317   1.399       .  A
C316        H321   1.083       .  S
C317        C318   1.402       .  A
C317        C369   1.474       .  S
C318        C319   1.402       .  A
C318        H322   1.082       .  S
C319        C320   1.405       .  A
C319        C470   1.477       .  S
C320        H323   1.082       .  S
C324        C325   1.414       .  A
C324        C329   1.410       .  A
C324        C563   1.506       .  S
C325        C326   1.406       .  A
C325        H330   1.083       .  S
C326        C327   1.401       .  A
C326        C389   1.476       .  S
C327        C328   1.397       .  A
C327        H331   1.085       .  S
C328        C329   1.400       .  A
C328        C448   1.470       .  S
C329        H332   1.084       .  S
C333        C334   1.408       .  A
C333        C338   1.407       .  A
C333        C493   1.500       .  S
C334        C335   1.400       .  A
C334        H339   1.083       .  S
C335        C336   1.402       .  A
C335        C405   1.474       .  S
C336        C337   1.400       .  A
C336        H340   1.082       .  S
C337        C338   1.405       .  A
C337        C455   1.477       .  S
C338        H341   1.083       .  S
C342        C343   1.407       .  A
C342        C347   1.407       .  A
C342        C552   1.501       .  S
C343        C344   1.402       .  A
C343        H348   1.083       .  S
C344        C345   1.400       .  A
C344        C480   1.470       .  S
C345        C346   1.400       .  A
C345        H349   1.084       .  S
C346        C347   1.402       .  A
C346        C419   1.467       .  S
C347        H350   1.083       .  S
C351        C352   1.406       .  A
C351        C356   1.406       .  A
C351        C521   1.496       .  S
C352        C353   1.399       .  A
C352        H357   1.084       .  S
C353        C354   1.399       .  A
C353        C384   1.466       .  S
C354        C355   1.400       .  A
C354        H358   1.085       .  S
C355        C356   1.400       .  A
C355        C476   1.466       .  S
C356        H359   1.083       .  S
C360        C361   1.396       .  A
C360        C365   1.400       .  A
C360        C580   1.488       .  S
C361        C362   1.398       .  A
C361        H366   1.082       .  S
C362        C363   1.404       .  A
C362        C490   1.472       .  S
C363        C364   1.408       .  A
C363        H367   1.084       .  S
C364        C365   1.403       .  A
C364        C409   1.475       .  S
C365        H368   1.082       .  S
C369        C406   1.459       .  S
C369        N387   1.351       .  A
N370        N387   1.323       .  A
N370        N392   1.318       .  A
N370       Co407   2.080       .  S
C371        C409   1.463       .  S
C371        H416   1.081       .  S
C371        N396   1.338       .  A
H372        C413   1.082       .  S
C373        C377   1.459       .  S
C373        H402   1.081       .  S
C373        N397   1.332       .  A
Co374       N392   2.075       .  S
Co374       N382   2.076       .  S
Co374       N414   2.076       .  S
Co374       N390   2.079       .  S
Co374      Cl418   2.423       .  S
N375        C413   1.347       .  A
N375        N382   1.319       .  A
N375       Co376   2.097       .  S
Co376       N379   2.082       .  S
Co376       N396   2.077       .  S
Co376       N383   2.091       .  S
Co376      Cl418   2.475       .  S
C377        C433   1.477       .  S
C377        N415   1.353       .  A
N378        N385   1.320       .  A
N378        N408   1.322       .  A
N378       Co411   2.075       .  S
N379        N397   1.319       .  A
N379        N415   1.327       .  A
N380        C409   1.349       .  A
N380        N390   1.324       .  A
H381        C406   1.081       .  S
N382        N403   1.320       .  A
N383        N401   1.320       .  A
N383        N388   1.325       .  A
C384        C412   1.454       .  S
C384        N388   1.352       .  A
N385        C400   1.341       .  A
N385       Co407   2.087       .  S
C386        C389   1.456       .  S
C386        H420   1.082       .  S
C386        N414   1.335       .  A
C389        N410   1.354       .  A
N390        N396   1.319       .  A
N391        C417   1.342       .  A
N391        N393   1.320       .  A
N391       Co407   2.082       .  S
N392        C406   1.339       .  A
N393        N421   1.321       .  A
N393       Co411   2.077       .  S
H394        C417   1.081       .  S
H395        C412   1.082       .  S
N397       Co411   2.074       .  S
N398        N410   1.329       .  A
N398        N414   1.320       .  A
N398       Co407   2.096       .  S
C399        C413   1.468       .  S
C399        C426   1.473       .  S
C399        N403   1.346       .  A
C400        C419   1.461       .  S
C400        H404   1.082       .  S
N401        C412   1.337       .  A
N401       Co411   2.069       .  S
C405        C417   1.464       .  S
C405        N421   1.347       .  A
Co407      Cl418   2.473       .  S
N408        C419   1.346       .  A
Co411      Cl418   2.421       .  S
C422        C423   1.409       .  A
C422        C427   1.410       .  A
C422        C535   1.501       .  S
C423        C424   1.402       .  A
C423        H428   1.084       .  S
C424        C425   1.400       .  A
C424        C440   1.476       .  S
C425        C426   1.404       .  A
C425        H429   1.085       .  S
C426        C427   1.403       .  A
C427        H430   1.083       .  S
C431        C432   1.414       .  A
C431        C436   1.413       .  A
C431        C591   1.509       .  S
C432        C433   1.403       .  A
C432        H437   1.082       .  S
C433        C434   1.396       .  A
C434        C435   1.393       .  A
C434        H438   1.078       .  S
C435        C436   1.405       .  A
C435        C460   1.477       .  S
C436        H439   1.083       .  S
C440        C477   1.459       .  S
C440        N458   1.352       .  A
N441        N458   1.327       .  A
N441        N463   1.321       .  A
N441      Co1910   2.094       .  S
C442        C480   1.458       .  S
C442        H487   1.082       .  S
C442        N467   1.340       .  A
H443        C484   1.082       .  S
C444        C448   1.454       .  S
C444        H473   1.082       .  S
C444        N468   1.337       .  A
Co445       N485   2.088       .  S
Co445       N461   2.090       .  S
Co445      N1895   2.089   1_455  S
Co445      N1885   2.089   1_455  S
Co445      Cl489   2.434       .  S
N446        C484   1.342       .  A
N446        N453   1.321       .  A
N446      Co1879   2.084       .  S
Co447       N467   2.078       .  S
Co447      N1878   2.084   1_455  S
Co447      N2598   2.094   1_455  S
Co447      N1170   2.074       .  S
Co447      Cl489   2.464       .  S
C448        N486   1.352       .  A
N449        N456   1.320   1_545  A
N449        N479   1.326       .  A
N449      Co1914   2.086       .  S
N450        N468   1.321       .  A
N450        N486   1.327       .  A
N450      Co2595   2.094   1_545  S
N451        C480   1.351       .  A
N451        N461   1.324       .  A
H452        C477   1.082       .  S
N453        N474   1.324       .  A
N453      Co1877   2.089       .  S
N454        N472   1.318       .  A
N454        N459   1.323       .  A
N454      Co1163   2.074   1_545  S
C455        C483   1.464       .  S
C455        N459   1.348       .  A
N456        C471   1.334   1_565  A
N456      Co2626   2.071       .  S
C457        C460   1.466       .  S
C457        H491   1.081       .  S
C457        N485   1.337       .  A
C460        N481   1.347       .  A
N461        N467   1.319       .  A
N462        C488   1.342   1_565  A
N462        N464   1.319   1_565  A
N462      Co1194   2.079       .  S
N463        C477   1.341       .  A
N463      Co1877   2.089       .  S
N464        N492   1.322       .  A
N464       Co482   2.080       .  S
H465        C488   1.082   1_565  S
H466        C483   1.081       .  S
N468      Co1914   2.077       .  S
N469        N481   1.324       .  A
N469        N485   1.318       .  A
N469       Co478   2.064       .  S
C470        C484   1.462       .  S
C470        N474   1.350       .  A
C471        C490   1.458       .  S
C471        H475   1.081   1_545  S
N472        C483   1.341       .  A
N472       Co482   2.086       .  S
C476        C488   1.459       .  S
C476        N492   1.349       .  A
Co478      N1873   2.094   1_455  S
Co478      N2604   2.070   1_455  S
Co478      N1178   2.079       .  S
Co478      Cl489   2.464       .  S
N479        C490   1.350       .  A
Co482      N1881   2.086   1_455  S
Co482      N1900   2.077   1_455  S
Co482     Cl1205   2.436   1_545  S
Cl489     Co1198   2.436       .  S
C493        C494   1.421       .  A
C493        C498   1.417       .  A
C494        C495   1.414       .  A
C494        C499   1.450       .  S
C495        C496   1.411       .  A
C495        C502   1.450   1_545  S
C496        C497   1.414       .  A
C497        C498   1.405       .  A
C497        C500   1.451       .  S
C498        C501   1.453       .  S
C499        N506   1.157       .  T
C500       N1221   1.156       .  T
C501        N503   1.158       .  T
C502        N504   1.157       .  T
N505       C1216   1.156       .  T
C507        C508   1.411       .  A
C507        C512   1.408       .  A
C508        C509   1.406       .  A
C508        C513   1.451       .  S
C509        C510   1.418       .  A
C509        C516   1.452       .  S
C510        C511   1.424       .  A
C511        C512   1.413       .  A
C511        C514   1.452       .  S
C512        C515   1.450       .  S
C513        N520   1.157       .  T
C514        N519   1.158       .  T
C515        N517   1.157       .  T
C516        N518   1.158       .  T
C521        C522   1.415       .  A
C521        C526   1.420       .  A
C522        C523   1.411       .  A
C522        C527   1.451       .  S
C523        C524   1.415       .  A
C523        C530   1.450       .  S
C524        C525   1.411       .  A
C525        C526   1.405       .  A
C525        C528   1.451       .  S
C526        C529   1.453       .  S
C527        N534   1.157       .  T
C528        N533   1.156       .  T
C529        N531   1.158       .  T
C530        N532   1.157       .  T
C535        C536   1.417       .  A
C535        C540   1.420       .  A
C536        C537   1.413       .  A
C536        C541   1.451       .  S
C537        C538   1.413       .  A
C537        C544   1.450       .  S
C538        C539   1.411       .  A
C539        C540   1.410       .  A
C539        C542   1.450       .  S
C540        C543   1.452       .  S
C541        N548   1.157       .  T
C542       N1979   1.157       .  T
C543        N545   1.158       .  T
C544        N546   1.157       .  T
N547       C1974   1.157       .  T
C549        C550   1.414       .  A
C549        C554   1.409       .  A
C550        C551   1.415       .  A
C550        C555   1.451       .  S
C551        C552   1.419       .  A
C551        C558   1.452       .  S
C552        C553   1.422       .  A
C553        C554   1.404       .  A
C553        C556   1.453       .  S
C554        C557   1.452       .  S
C555        N562   1.157       .  T
C556        N561   1.158       .  T
C557        N559   1.157       .  T
C558        N560   1.158       .  T
C563        C564   1.419       .  A
C563        C568   1.421       .  A
C564        C565   1.415       .  A
C564        C569   1.452       .  S
C565        C566   1.413       .  A
C565        C572   1.450       .  S
C566        C567   1.411       .  A
C567        C568   1.411       .  A
C567        C570   1.450       .  S
C568        C571   1.452       .  S
C569        N576   1.158       .  T
C570        N575   1.157       .  T
C571        N573   1.158       .  T
C572        N574   1.157       .  T
C577        C578   1.408       .  A
C577        C582   1.408   1_545  A
C578        C579   1.409       .  A
C578        C583   1.450       .  S
C579        C580   1.418       .  A
C579        C586   1.451       .  S
C580        C581   1.418       .  A
C581        C582   1.403   1_545  A
C581        C584   1.453   1_545  S
C582       C1301   1.451       .  S
C583        N590   1.157       .  T
C584       N1305   1.158       .  T
C585       C1298   1.451       .  S
C585        N587   1.156       .  T
C586        N588   1.157       .  T
N589       C1300   1.158       .  T
C591        C592   1.424       .  A
C591        C596   1.420       .  A
C592        C593   1.416       .  A
C592        C597   1.451       .  S
C593        C594   1.410       .  A
C593        C600   1.450       .  S
C594        C595   1.412       .  A
C595        C596   1.408       .  A
C595        C598   1.451       .  S
C596        C599   1.452       .  S
C597        N604   1.157       .  T
C598        N603   1.156       .  T
C599        N601   1.158       .  T
C600        N602   1.157       .  T
C605        C606   1.419       .  A
C605        C610   1.422       .  A
C606        C607   1.414       .  A
C606        C611   1.450       .  S
C607        C608   1.414       .  A
C607        C614   1.451       .  S
C608        C609   1.413       .  A
C609        C610   1.410       .  A
C609       C1328   1.453   1_545  S
C610        C613   1.453   1_545  S
C611        N618   1.157       .  T
C612       C1325   1.453       .  S
C612        N617   1.157       .  T
C613        N615   1.158       .  T
C614        N616   1.157       .  T
C619        C620   1.410       .  A
C619        C624   1.407       .  A
C620        C621   1.410       .  A
C620        C625   1.451       .  S
C621        C622   1.423       .  A
C621        C628   1.451       .  S
C622        C623   1.426       .  A
C623        C624   1.407       .  A
C623        C626   1.450       .  S
C624        C627   1.453       .  S
C625        N632   1.157       .  T
C626        N631   1.157       .  T
C627        N629   1.157       .  T
C628        N630   1.157       .  T
C633        C634   1.421       .  A
C633        C638   1.416       .  A
C634        C635   1.410       .  A
C634        C639   1.452   1_545  S
C635        C636   1.412       .  A
C635       C1358   1.453   1_545  S
C636        C637   1.417       .  A
C636        C918   1.506       .  S
C637        C638   1.414       .  A
C637        C640   1.451       .  S
C638        C641   1.451       .  S
C639        N646   1.158       .  T
C640        N645   1.157       .  T
C641        N643   1.157       .  T
C642       C1351   1.453       .  S
C642        N644   1.157       .  T
C647        C648   1.420       .  A
C647        C652   1.424       .  A
C648        C649   1.411       .  A
C648        C653   1.451       .  S
C649        C650   1.412       .  A
C649        C656   1.450       .  S
C650        C651   1.410       .  A
C651        C652   1.409       .  A
C651        C654   1.451       .  S
C652        C655   1.451       .  S
C653        N660   1.158       .  T
C654        N659   1.157       .  T
C655        N657   1.158       .  T
C656        N658   1.157       .  T
C661        C662   1.416       .  A
C661        C666   1.420       .  A
C662        C663   1.410       .  A
C662        C667   1.451       .  S
C663        C664   1.411       .  A
C663       C2102   1.451       .  S
C664        C665   1.410       .  A
C665        C666   1.404       .  A
C665        C668   1.453       .  S
C666        C669   1.453       .  S
C667        N674   1.157       .  T
C668        N673   1.157       .  T
C669        N671   1.158       .  T
C670       C2095   1.451       .  S
C670        N672   1.157       .  T
C675        C676   1.409       .  A
C675        C680   1.414       .  A
C676        C677   1.408       .  A
C676        C681   1.453       .  S
C677        C678   1.426       .  A
C677        C684   1.453       .  S
C678        C679   1.419       .  A
C679        C680   1.411       .  A
C679        C682   1.452       .  S
C680        C683   1.451       .  S
C681        N688   1.157       .  T
C682        N687   1.157       .  T
C683        N685   1.157       .  T
C684        N686   1.158       .  T
C689        C690   1.425       .  A
C689        C694   1.417       .  A
C690        C691   1.407       .  A
C690        C695   1.453       .  S
C691        C692   1.410       .  A
C691        C698   1.454       .  S
C692        C693   1.414       .  A
C693        C694   1.413       .  A
C693        C696   1.451       .  S
C694        C697   1.451       .  S
C695        N702   1.158       .  T
C696        N701   1.157       .  T
C697        N699   1.157       .  T
C698        N700   1.157       .  T
C703        C704   1.419       .  A
C703        C708   1.418       .  A
C704        C705   1.405       .  A
C704        C709   1.453       .  S
C705        C706   1.412       .  A
C705        C712   1.453       .  S
C706        C707   1.412       .  A
C707        C708   1.413       .  A
C707       C2142   1.451       .  S
C708        C711   1.451       .  S
C709        N716   1.158       .  T
C710       C2139   1.451       .  S
C710        N715   1.157       .  T
C711        N713   1.157       .  T
C712        N714   1.157       .  T
C717        C718   1.409       .  A
C717        C722   1.402       .  A
C717       C1419   1.496       .  S
C718        C719   1.408       .  A
C718        H723   1.083       .  S
C719        C720   1.403       .  A
C719        C753   1.479       .  S
C720        C721   1.399       .  A
C720        H724   1.082       .  S
C721        C722   1.397       .  A
C721        C872   1.472       .  S
C722        H725   1.082       .  S
C726        C727   1.412       .  A
C726        C731   1.406       .  A
C726       C1405   1.504       .  S
C727        C728   1.405       .  A
C727        H732   1.083       .  S
C728        C729   1.400       .  A
C728        C783   1.472       .  S
C729        C730   1.401       .  A
C729        H733   1.084       .  S
C730        C731   1.400       .  A
C730        C842   1.472       .  S
C731        H734   1.083       .  S
C735        C736   1.407       .  A
C735        C740   1.411       .  A
C735       C1394   1.506       .  S
C736        C737   1.401       .  A
C736        H741   1.082       .  S
C737        C738   1.405       .  A
C737        C803   1.473       .  S
C738        C739   1.401       .  A
C738        H742   1.084       .  S
C739        C740   1.401       .  A
C739        C882   1.473       .  S
C740        H743   1.082       .  S
C744        C745   1.406       .  A
C744        C749   1.397       .  A
C744       C1377   1.492       .  S
C745        C746   1.407       .  A
C745        H750   1.082       .  S
C746        C747   1.406       .  A
C746        C793   1.476       .  S
C747        C748   1.400       .  A
C747        H751   1.084       .  S
C748        C749   1.397       .  A
C748        C892   1.470       .  S
C749        H752   1.083       .  S
C753        C790   1.462       .  S
C753       N2203   1.351       .  A
N754        N771   1.326       .  A
N754       N2208   1.320       .  A
N754       Co791   2.080   1_655  S
C755       C2225   1.463   1_455  S
C755        H800   1.081       .  S
H756        C797   1.082   1_455  S
C757        C761   1.459       .  S
C757        H786   1.081       .  S
C757        N781   1.335       .  A
Co758       N776   2.087       .  S
Co758       N766   2.081       .  S
Co758       N798   2.078   1_565  S
Co758       N774   2.085   1_565  S
Co758     Cl2234   2.422       .  S
N759        C797   1.344   1_455  A
N759       N2198   1.321   1_455  A
N759       Co760   2.091       .  S
Co760       N763   2.096       .  S
Co760       N780   2.082   1_565  S
Co760       N767   2.094   1_565  S
Co760      Cl802   2.477       .  S
C761        C810   1.484       .  S
C761        N799   1.356       .  A
N762        N769   1.318       .  A
N762        N792   1.322       .  A
N762       Co795   2.079       .  S
N763        N781   1.319       .  A
N763        N799   1.329       .  A
N764        C793   1.350       .  A
H765        C790   1.081       .  S
N766       N2191   1.321       .  A
N766        N787   1.323       .  A
N767        N785   1.319       .  A
C768        C796   1.459       .  S
C768        C837   1.476       .  S
C768        N772   1.353       .  A
N769        C784   1.344       .  A
N769       Co791   2.089       .  S
C770        C773   1.457       .  S
C770        H804   1.082       .  S
N771       C2185   1.351       .  A
C773        C819   1.473       .  S
C773       N2226   1.353       .  A
N774       N2212   1.320       .  A
N775        N777   1.319       .  A
N775       Co791   2.082   1_545  S
N776        C790   1.338       .  A
N776       N2186   1.320       .  A
N777       Co795   2.088   1_545  S
H778        C801   1.081       .  S
H779        C796   1.082       .  S
N780       N2206   1.320   1_455  A
N781       Co795   2.078       .  S
N782       N2230   1.319       .  A
N782       Co791   2.087   1_645  S
C783       C2229   1.462       .  S
C783        N787   1.347       .  A
C784        C803   1.467       .  S
C784        H788   1.082       .  S
N785       Co795   2.080   1_545  S
C789        C801   1.463       .  S
C789        C828   1.480       .  S
C789        N805   1.351       .  A
Co791      Cl802   2.478       .  S
N792        C803   1.348       .  A
C793       C2187   1.463       .  S
N794       C2205   1.353       .  A
Co795      Cl802   2.422       .  S
C797       C2215   1.462       .  S
N798       N2214   1.319       .  A
Cl802     Co2190   2.422   1_455  S
C806        C807   1.409       .  A
C806        C811   1.415       .  A
C806       C1363   1.507       .  S
C807        C808   1.400       .  A
C807        H812   1.082       .  S
C808        C809   1.399       .  A
C808        C862   1.477       .  S
C809        C810   1.403       .  A
C809        H813   1.079       .  S
C810        C811   1.404       .  A
C811        H814   1.082       .  S
C815        C816   1.410       .  A
C815        C820   1.410       .  A
C815       C1349   1.501       .  S
C816        C817   1.403       .  A
C816        H821   1.084       .  S
C817        C818   1.397       .  A
C817        C850   1.470       .  S
C818        C819   1.399       .  A
C818        H822   1.085       .  S
C819        C820   1.403       .  A
C820        H823   1.083       .  S
C824        C825   1.408       .  A
C824        C829   1.414       .  A
C824       C1338   1.511       .  S
C825        C826   1.400       .  A
C825        H830   1.081       .  S
C826        C827   1.399       .  A
C826        C857   1.472       .  S
C827        C828   1.400       .  A
C827        H831   1.083       .  S
C828        C829   1.405       .  A
C829        H832   1.080       .  S
C833        C834   1.410       .  A
C833        C838   1.411       .  A
C833       C1321   1.507       .  S
C834        C835   1.401       .  A
C834        H839   1.083       .  S
C835        C836   1.400       .  A
C835        C878   1.470       .  S
C836        C837   1.401       .  A
C836        H840   1.084       .  S
C837        C838   1.404       .  A
C838        H841   1.083       .  S
C842        C879   1.460       .  S
C842        N860   1.352       .  A
N843        N860   1.326       .  A
N843        N865   1.319       .  A
N843       Co880   2.090       .  S
C844        C882   1.462       .  S
C844        H889   1.081       .  S
C844        N869   1.342       .  A
H845        C886   1.081       .  S
C846        C850   1.456       .  S
C846        H875   1.082       .  S
C846        N870   1.337       .  A
Co847       N865   2.082       .  S
Co847       N855   2.077       .  S
Co847       N887   2.076       .  S
Co847       N863   2.086       .  S
Co847      Cl891   2.436       .  S
N848        C886   1.338       .  A
N848        N855   1.318       .  A
N848       Co849   2.073       .  S
Co849       N852   2.091       .  S
Co849       N869   2.097       .  S
Co849       N856   2.080       .  S
Co849      Cl891   2.466       .  S
C850        N888   1.351       .  A
N851        N858   1.318       .  A
N851        N881   1.326       .  A
N851       Co884   2.082       .  S
N852        N870   1.321       .  A
N852        N888   1.327       .  A
N853        C882   1.348       .  A
N853        N863   1.326       .  A
H854        C879   1.082       .  S
N855        N876   1.323       .  A
N856        N874   1.319       .  A
N856        N861   1.324       .  A
C857        C885   1.457       .  S
C857        N861   1.351       .  A
N858        C873   1.332       .  A
N858       Co880   2.063       .  S
C859        C862   1.458       .  S
C859        H893   1.081       .  S
C859        N887   1.337       .  A
C862        N883   1.352       .  A
N863        N869   1.322       .  A
N864        C890   1.344       .  A
N864        N866   1.322       .  A
N864       Co880   2.095       .  S
N865        C879   1.338       .  A
N866        N894   1.322       .  A
N866       Co884   2.081       .  S
H867        C890   1.081       .  S
H868        C885   1.081       .  S
N870       Co884   2.080       .  S
N871        N883   1.326       .  A
N871        N887   1.319       .  A
N871       Co880   2.084       .  S
C872        C886   1.460       .  S
C872        N876   1.348       .  A
C873        C892   1.455       .  S
C873        H877   1.081       .  S
N874        C885   1.338       .  A
N874       Co884   2.074       .  S
C878        C890   1.465       .  S
C878        N894   1.346       .  A
Co880      Cl891   2.467       .  S
N881        C892   1.351       .  A
Co884      Cl891   2.433       .  S
N895        C900   1.351       .  A
N895        C899   1.349       .  A
N895        H927   1.038       .  S
N897        C902   1.355       .  A
N897        C901   1.359       .  A
N897        H928   1.035       .  S
N898        C905   1.354       .  A
N898        C906   1.350       .  A
C899        C907   1.388   1_565  A
C900        C916   1.410       .  A
C900        C908   1.386       .  A
C901        C909   1.384       .  A
C901        C918   1.424   1_565  A
C902        C917   1.429       .  A
C902        C910   1.391       .  A
C903        C915   1.405       .  A
C903        C911   1.385       .  A
C904        C912   1.387       .  A
C905        C913   1.383       .  A
C905        C916   1.413       .  A
C906        C914   1.389       .  A
C906        C917   1.419       .  A
C907        C908   1.374   1_545  A
C907        H919   1.083       .  S
C908        H920   1.083       .  S
C909        C910   1.372       .  A
C909        H921   1.082   1_565  S
C910        H922   1.080       .  S
C911        C912   1.374       .  A
C911        H923   1.082       .  S
C912        H924   1.082       .  S
C913        C914   1.373       .  A
C913        H925   1.082       .  S
C914        H926   1.081       .  S
C915       C1293   1.486       .  S
C916       C1310   1.502       .  S
C917       C1391   1.500       .  S
N929        C934   1.356       .  A
N929        C933   1.352       .  A
N929        H961   1.035       .  S
N930        C937   1.348   1_556  A
N930        C938   1.350       .  A
N931        C936   1.353       .  A
N931        C935   1.357       .  A
N931        H962   1.036       .  S
N932        C939   1.352   1_556  A
N932        C940   1.350       .  A
C933        C941   1.386       .  A
C933       C2381   1.417   1_455  A
C934        C950   1.421       .  A
C934        C942   1.389       .  A
C935        C943   1.385       .  A
C935       C2384   1.419   1_455  A
C936        C951   1.421       .  A
C936        C944   1.388       .  A
C937        C949   1.408       .  A
C937        C945   1.386       .  A
C938        C952   1.410       .  A
C938        C946   1.386       .  A
C939        C947   1.386       .  A
C939        C950   1.413       .  A
C940        C948   1.386       .  A
C940        C951   1.413       .  A
C941        C942   1.368       .  A
C941        H953   1.082       .  S
C942        H954   1.080       .  S
C943        C944   1.379       .  A
C943        H955   1.082       .  S
C944        H956   1.082       .  S
C945        C946   1.375   1_554  A
C945        H957   1.082       .  S
C946        H958   1.082       .  S
C947        C948   1.372   1_554  A
C947        H959   1.081       .  S
C948        H960   1.082       .  S
C949       C2365   1.417       .  A
C949       C1380   1.492       .  S
C950       C1366   1.502       .  S
C951       C1265   1.499       .  S
C952       C2367   1.419       .  A
C952       C1282   1.504       .  S
N963        C968   1.353       .  A
N963        C967   1.352       .  A
N963        H995   1.038       .  S
N964       C2403   1.349   1_455  A
N964       C2404   1.349   1_455  A
N965        C970   1.353       .  A
N965        C969   1.354       .  A
N965        H996   1.039       .  S
N966        C973   1.351       .  A
N966        C974   1.349       .  A
C967        C975   1.385       .  A
C967       C2415   1.415   1_455  A
C968        C984   1.421       .  A
C968        C976   1.391       .  A
C969        C977   1.387       .  A
C969       C2418   1.419   1_455  A
C970        C985   1.420       .  A
C970        C978   1.387       .  A
C971        C983   1.409       .  A
C971        C979   1.385       .  A
C971       N2396   1.349       .  A
C972        C986   1.411       .  A
C972        C980   1.386       .  A
C972       N2396   1.349       .  A
C973        C981   1.386       .  A
C973        C984   1.412       .  A
C974        C982   1.387       .  A
C974        C985   1.413       .  A
C975        C976   1.367       .  A
C975        H987   1.082       .  S
C976        H988   1.079       .  S
C977        C978   1.378       .  A
C977        H989   1.082       .  S
C978        H990   1.082       .  S
C979        C980   1.376       .  A
C979        H991   1.082       .  S
C980        H992   1.082       .  S
C981        C982   1.372       .  A
C981        H993   1.082       .  S
C982        H994   1.082       .  S
C983       C2399   1.415       .  A
C983       C1422   1.497       .  S
C984       C1335   1.497       .  S
C985       C1240   1.500       .  S
C986       C2401   1.419       .  A
C986       C1254   1.501       .  S
N997       C1002   1.352       .  A
N997       C1001   1.353       .  A
N997       H1029   1.036       .  S
N998       C1005   1.349   1_554  A
N998       C1006   1.347       .  A
N999       C1004   1.357       .  A
N999       C1003   1.357       .  A
N999       H1030   1.037       .  S
C1001      C1009   1.385       .  A
C1001      C1017   1.412       .  A
C1002      C1010   1.388       .  A
C1003      C1011   1.387       .  A
C1003      C1020   1.423       .  A
C1004      C1012   1.387       .  A
C1005      C1017   1.408       .  A
C1005      C1013   1.383       .  A
C1006      C1020   1.414       .  A
C1006      C1014   1.388       .  A
C1007      C1015   1.385       .  A
C1007      C1018   1.415       .  A
C1008      C1016   1.387       .  A
C1008      C1019   1.417       .  A
C1009      C1010   1.371       .  A
C1009      H1021   1.083       .  S
C1010      H1022   1.083       .  S
C1011      C1012   1.373       .  A
C1011      H1023   1.082       .  S
C1012      H1024   1.082   1_565  S
C1013      C1014   1.373   1_556  A
C1013      H1025   1.081       .  S
C1014      H1026   1.081       .  S
C1015      C1016   1.374   1_556  A
C1015      H1027   1.081       .  S
C1016      H1028   1.081       .  S
C1017      C1223   1.494       .  S
C1018      C1212   1.499       .  S
C1019      C1324   1.505       .  S
C1020      C1408   1.500       .  S
C1031      C1032   1.404       .  A
C1031      C1036   1.410       .  A
C1031      C1226   1.501       .  S
C1032      C1033   1.399       .  A
C1032      H1037   1.083       .  S
C1033      C1034   1.402       .  A
C1033      C1085   1.474       .  S
C1034      C1035   1.402       .  A
C1034      H1038   1.082       .  S
C1035      C1036   1.405       .  A
C1035      C1186   1.477       .  S
C1036      H1039   1.082       .  S
C1040      C1041   1.414       .  A
C1040      C1045   1.410       .  A
C1040      C1279   1.506       .  S
C1041      C1042   1.406       .  A
C1041      H1046   1.083       .  S
C1042      C1043   1.401       .  A
C1042      C1105   1.476       .  S
C1043      C1044   1.397       .  A
C1043      H1047   1.085       .  S
C1044      C1045   1.400       .  A
C1044      C1164   1.470       .  S
C1045      H1048   1.084       .  S
C1049      C1050   1.408       .  A
C1049      C1054   1.407       .  A
C1049      C1209   1.500       .  S
C1050      C1051   1.400       .  A
C1050      H1055   1.083       .  S
C1051      C1052   1.402       .  A
C1051      C1121   1.474       .  S
C1052      C1053   1.400       .  A
C1052      H1056   1.082       .  S
C1053      C1054   1.405       .  A
C1053      C1171   1.477       .  S
C1054      H1057   1.083       .  S
C1058      C1059   1.407       .  A
C1058      C1063   1.407       .  A
C1058      C1268   1.501       .  S
C1059      C1060   1.402       .  A
C1059      H1064   1.083       .  S
C1060      C1061   1.400       .  A
C1060      C1196   1.470       .  S
C1061      C1062   1.400       .  A
C1061      H1065   1.084       .  S
C1062      C1063   1.402       .  A
C1062      C1135   1.467       .  S
C1063      H1066   1.083       .  S
C1067      C1068   1.406       .  A
C1067      C1072   1.406       .  A
C1067      C1237   1.496       .  S
C1068      C1069   1.399       .  A
C1068      H1073   1.084       .  S
C1069      C1070   1.399       .  A
C1069      C1100   1.466       .  S
C1070      C1071   1.400       .  A
C1070      H1074   1.085       .  S
C1071      C1072   1.400       .  A
C1071      C1192   1.466       .  S
C1072      H1075   1.083       .  S
C1076      C1077   1.396       .  A
C1076      C1081   1.400       .  A
C1076      C1296   1.488       .  S
C1077      C1078   1.398       .  A
C1077      H1082   1.082       .  S
C1078      C1079   1.404       .  A
C1078      C1206   1.472       .  S
C1079      C1080   1.408       .  A
C1079      H1083   1.084       .  S
C1080      C1081   1.403       .  A
C1080      C1125   1.475       .  S
C1081      H1084   1.082       .  S
C1085      C1122   1.459       .  S
C1085      N1103   1.351       .  A
N1086      N1103   1.323       .  A
N1086      N1108   1.318       .  A
N1086     Co1123   2.080       .  S
C1087      C1125   1.463       .  S
C1087      H1132   1.081       .  S
C1087      N1112   1.338       .  A
H1088      C1129   1.082       .  S
C1089      C1093   1.459       .  S
C1089      H1118   1.081       .  S
C1089      N1113   1.332       .  A
Co1090     N1108   2.075       .  S
Co1090     N1098   2.076       .  S
Co1090     N1130   2.076       .  S
Co1090     N1106   2.079       .  S
Co1090    Cl1134   2.423       .  S
N1091      C1129   1.347       .  A
N1091      N1098   1.319       .  A
N1091     Co1092   2.097       .  S
Co1092     N1095   2.082       .  S
Co1092     N1112   2.077       .  S
Co1092     N1099   2.091       .  S
Co1092    Cl1134   2.475       .  S
C1093      C1149   1.477       .  S
C1093      N1131   1.353       .  A
N1094      N1101   1.320       .  A
N1094      N1124   1.322       .  A
N1094     Co1127   2.075       .  S
N1095      N1113   1.319       .  A
N1095      N1131   1.327       .  A
N1096      C1125   1.349       .  A
N1096      N1106   1.324       .  A
H1097      C1122   1.081       .  S
N1098      N1119   1.320       .  A
N1099      N1117   1.320       .  A
N1099      N1104   1.325       .  A
C1100      C1128   1.454       .  S
C1100      N1104   1.352       .  A
N1101      C1116   1.341       .  A
N1101     Co1123   2.087       .  S
C1102      C1105   1.456       .  S
C1102      H1136   1.082       .  S
C1102      N1130   1.335       .  A
C1105      N1126   1.354       .  A
N1106      N1112   1.319       .  A
N1107      C1133   1.342       .  A
N1107      N1109   1.320       .  A
N1107     Co1123   2.082       .  S
N1108      C1122   1.339       .  A
N1109      N1137   1.321       .  A
N1109     Co1127   2.077       .  S
H1110      C1133   1.081       .  S
H1111      C1128   1.082       .  S
N1113     Co1127   2.074       .  S
N1114      N1126   1.329       .  A
N1114      N1130   1.320       .  A
N1114     Co1123   2.096       .  S
C1115      C1129   1.468       .  S
C1115      C1142   1.473       .  S
C1115      N1119   1.346       .  A
C1116      C1135   1.461       .  S
C1116      H1120   1.082       .  S
N1117      C1128   1.337       .  A
N1117     Co1127   2.069       .  S
C1121      C1133   1.464       .  S
C1121      N1137   1.347       .  A
Co1123    Cl1134   2.473       .  S
N1124      C1135   1.346       .  A
Co1127    Cl1134   2.421       .  S
C1138      C1139   1.409       .  A
C1138      C1143   1.410       .  A
C1138      C1251   1.501       .  S
C1139      C1140   1.402       .  A
C1139      H1144   1.084       .  S
C1140      C1141   1.400       .  A
C1140      C1156   1.476       .  S
C1141      C1142   1.404       .  A
C1141      H1145   1.085       .  S
C1142      C1143   1.403       .  A
C1143      H1146   1.083       .  S
C1147      C1148   1.414       .  A
C1147      C1152   1.413       .  A
C1147      C1307   1.509       .  S
C1148      C1149   1.403       .  A
C1148      H1153   1.082       .  S
C1149      C1150   1.396       .  A
C1150      C1151   1.393       .  A
C1150      H1154   1.078       .  S
C1151      C1152   1.405       .  A
C1151      C1176   1.477       .  S
C1152      H1155   1.083       .  S
C1156      C1193   1.459       .  S
C1156      N1174   1.352       .  A
N1157      N1174   1.327       .  A
N1157      N1179   1.321       .  A
N1157     Co2626   2.094       .  S
C1158      C1196   1.458       .  S
C1158      H1203   1.082       .  S
C1158      N1183   1.340       .  A
H1159      C1200   1.082       .  S
C1160      C1164   1.454       .  S
C1160      H1189   1.082       .  S
C1160      N1184   1.337       .  A
Co1161     N2611   2.089   1_455  S
Co1161     N2601   2.089   1_455  S
Co1161     N1201   2.088       .  S
Co1161     N1177   2.090       .  S
Co1161    Cl1205   2.434       .  S
N1162      C1200   1.342       .  A
N1162      N1169   1.321       .  A
N1162     Co2595   2.084       .  S
Co1163     N2594   2.084   1_455  S
Co1163     N1882   2.094   1_465  S
Co1163     N1183   2.078       .  S
Co1163    Cl1205   2.464       .  S
C1164      N1202   1.352       .  A
N1165      N1172   1.320       .  A
N1165      N1195   1.326       .  A
N1165     Co2630   2.086       .  S
N1166      N1184   1.321       .  A
N1166      N1202   1.327       .  A
N1166     Co1879   2.094       .  S
N1167      C1196   1.351       .  A
N1167      N1177   1.324       .  A
H1168      C1193   1.082       .  S
N1169      N1190   1.324       .  A
N1169     Co2593   2.089       .  S
N1170      N1188   1.318       .  A
N1170      N1175   1.323       .  A
C1171      C1199   1.464       .  S
C1171      N1175   1.348       .  A
N1172      C1187   1.334       .  A
N1172     Co1910   2.070       .  S
C1173      C1176   1.466       .  S
C1173      H1207   1.081       .  S
C1173      N1201   1.337       .  A
C1176      N1197   1.347       .  A
N1177      N1183   1.319       .  A
N1178      C1204   1.342       .  A
N1178      N1180   1.319       .  A
N1179      C1193   1.341       .  A
N1179     Co2593   2.089       .  S
N1180      N1208   1.322       .  A
N1180     Co1198   2.080       .  S
H1181      C1204   1.082       .  S
H1182      C1199   1.081       .  S
N1184     Co2630   2.077       .  S
N1185      N1197   1.324       .  A
N1185      N1201   1.318       .  A
N1185     Co1194   2.064       .  S
C1186      C1200   1.462       .  S
C1186      N1190   1.350       .  A
C1187      C1206   1.458       .  S
C1187      H1191   1.081       .  S
N1188      C1199   1.341       .  A
N1188     Co1198   2.086       .  S
C1192      C1204   1.459       .  S
C1192      N1208   1.349       .  A
Co1194     N2589   2.094   1_455  S
Co1194     N1888   2.071   1_455  S
Co1194    Cl1205   2.464       .  S
N1195      C1206   1.350       .  A
Co1198     N2597   2.086   1_455  S
Co1198     N2616   2.077   1_455  S
C1209      C1210   1.421       .  A
C1209      C1214   1.417       .  A
C1210      C1211   1.414       .  A
C1210      C1215   1.450       .  S
C1211      C1212   1.411       .  A
C1211      C1218   1.450       .  S
C1212      C1213   1.414       .  A
C1213      C1214   1.405       .  A
C1213      C1216   1.451       .  S
C1214      C1217   1.453       .  S
C1215      N1222   1.157       .  T
C1217      N1219   1.158       .  T
C1218      N1220   1.157       .  T
C1223      C1224   1.411       .  A
C1223      C1228   1.408       .  A
C1224      C1225   1.406       .  A
C1224      C1229   1.451       .  S
C1225      C1226   1.418       .  A
C1225      C1232   1.452       .  S
C1226      C1227   1.424       .  A
C1227      C1228   1.413       .  A
C1227      C1230   1.452       .  S
C1228      C1231   1.450       .  S
C1229      N1236   1.157       .  T
C1230      N1235   1.158       .  T
C1231      N1233   1.157       .  T
C1232      N1234   1.158       .  T
C1237      C1238   1.415       .  A
C1237      C1242   1.420       .  A
C1238      C1239   1.411       .  A
C1238      C1243   1.451       .  S
C1239      C1240   1.415       .  A
C1239      C1246   1.450       .  S
C1240      C1241   1.411       .  A
C1241      C1242   1.405       .  A
C1241      C1244   1.451       .  S
C1242      C1245   1.453       .  S
C1243      N1250   1.157       .  T
C1244      N1249   1.156       .  T
C1245      N1247   1.158       .  T
C1246      N1248   1.157       .  T
C1251      C1252   1.417       .  A
C1251      C1256   1.420       .  A
C1252      C1253   1.413       .  A
C1252      C1257   1.451       .  S
C1253      C1254   1.413       .  A
C1253      C1260   1.450       .  S
C1254      C1255   1.411       .  A
C1255      C1256   1.410       .  A
C1255      C1258   1.450       .  S
C1256      C1259   1.452       .  S
C1257      N1264   1.157       .  T
C1258      N2695   1.157       .  T
C1259      N1261   1.158       .  T
C1260      N1262   1.157       .  T
N1263      C2690   1.157       .  T
C1265      C1266   1.414       .  A
C1265      C1270   1.409       .  A
C1266      C1267   1.415       .  A
C1266      C1271   1.451       .  S
C1267      C1268   1.419       .  A
C1267      C1274   1.452       .  S
C1268      C1269   1.422       .  A
C1269      C1270   1.404       .  A
C1269      C1272   1.453       .  S
C1270      C1273   1.452       .  S
C1271      N1278   1.157       .  T
C1272      N1277   1.158       .  T
C1273      N1275   1.157       .  T
C1274      N1276   1.158       .  T
C1279      C1280   1.419       .  A
C1279      C1284   1.421       .  A
C1280      C1281   1.415       .  A
C1280      C1285   1.452       .  S
C1281      C1282   1.413       .  A
C1281      C1288   1.450       .  S
C1282      C1283   1.411       .  A
C1283      C1284   1.411       .  A
C1283      C1286   1.450       .  S
C1284      C1287   1.452       .  S
C1285      N1292   1.158       .  T
C1286      N1291   1.157       .  T
C1287      N1289   1.158       .  T
C1288      N1290   1.157       .  T
C1293      C1294   1.408       .  A
C1293      C1298   1.408       .  A
C1294      C1295   1.409       .  A
C1294      C1299   1.450       .  S
C1295      C1296   1.418       .  A
C1295      C1302   1.451       .  S
C1296      C1297   1.418       .  A
C1297      C1298   1.403       .  A
C1297      C1300   1.453       .  S
C1299      N1306   1.157       .  T
C1301      N1303   1.156       .  T
C1302      N1304   1.157       .  T
C1307      C1308   1.424       .  A
C1307      C1312   1.420       .  A
C1308      C1309   1.416       .  A
C1308      C1313   1.451       .  S
C1309      C1310   1.410       .  A
C1309      C1316   1.450       .  S
C1310      C1311   1.412       .  A
C1311      C1312   1.408       .  A
C1311      C1314   1.451       .  S
C1312      C1315   1.452       .  S
C1313      N1320   1.157       .  T
C1314      N1319   1.156       .  T
C1315      N1317   1.158       .  T
C1316      N1318   1.157       .  T
C1321      C1322   1.419       .  A
C1321      C1326   1.422       .  A
C1322      C1323   1.414       .  A
C1322      C1327   1.450       .  S
C1323      C1324   1.414       .  A
C1323      C1330   1.451       .  S
C1324      C1325   1.413       .  A
C1325      C1326   1.410       .  A
C1326      C1329   1.453       .  S
C1327      N1334   1.157       .  T
C1328      N1333   1.157       .  T
C1329      N1331   1.158       .  T
C1330      N1332   1.157       .  T
C1335      C1336   1.410       .  A
C1335      C1340   1.407       .  A
C1336      C1337   1.410       .  A
C1336      C1341   1.451       .  S
C1337      C1338   1.423       .  A
C1337      C1344   1.451       .  S
C1338      C1339   1.426       .  A
C1339      C1340   1.407       .  A
C1339      C1342   1.450       .  S
C1340      C1343   1.453       .  S
C1341      N1348   1.157       .  T
C1342      N1347   1.157       .  T
C1343      N1345   1.157       .  T
C1344      N1346   1.157       .  T
C1349      C1350   1.421       .  A
C1349      C1354   1.416       .  A
C1350      C1351   1.410       .  A
C1350      C1355   1.452       .  S
C1351      C1352   1.412       .  A
C1352      C1353   1.417       .  A
C1353      C1354   1.414       .  A
C1353      C1356   1.451       .  S
C1354      C1357   1.451       .  S
C1355      N1362   1.158       .  T
C1356      N1361   1.157       .  T
C1357      N1359   1.157       .  T
C1358      N1360   1.157       .  T
C1363      C1364   1.420       .  A
C1363      C1368   1.424       .  A
C1364      C1365   1.411       .  A
C1364      C1369   1.451       .  S
C1365      C1366   1.412       .  A
C1365      C1372   1.450       .  S
C1366      C1367   1.410       .  A
C1367      C1368   1.409       .  A
C1367      C1370   1.451       .  S
C1368      C1371   1.451       .  S
C1369      N1376   1.158       .  T
C1370      N1375   1.157       .  T
C1371      N1373   1.158       .  T
C1372      N1374   1.157       .  T
C1377      C1378   1.416       .  A
C1377      C1382   1.420       .  A
C1378      C1379   1.410       .  A
C1378      C1383   1.451       .  S
C1379      C1380   1.411       .  A
C1379      C2818   1.451       .  S
C1380      C1381   1.410       .  A
C1381      C1382   1.404       .  A
C1381      C1384   1.453       .  S
C1382      C1385   1.453       .  S
C1383      N1390   1.157       .  T
C1384      N1389   1.157       .  T
C1385      N1387   1.158       .  T
C1386      C2811   1.451       .  S
C1386      N1388   1.157       .  T
C1391      C1392   1.409       .  A
C1391      C1396   1.414       .  A
C1392      C1393   1.408       .  A
C1392      C1397   1.453       .  S
C1393      C1394   1.426       .  A
C1393      C1400   1.453       .  S
C1394      C1395   1.419       .  A
C1395      C1396   1.411       .  A
C1395      C1398   1.452       .  S
C1396      C1399   1.451       .  S
C1397      N1404   1.157       .  T
C1398      N1403   1.157       .  T
C1399      N1401   1.157       .  T
C1400      N1402   1.158       .  T
C1405      C1406   1.425       .  A
C1405      C1410   1.417       .  A
C1406      C1407   1.407       .  A
C1406      C1411   1.453       .  S
C1407      C1408   1.410       .  A
C1407      C1414   1.454       .  S
C1408      C1409   1.414       .  A
C1409      C1410   1.413       .  A
C1409      C1412   1.451       .  S
C1410      C1413   1.451       .  S
C1411      N1418   1.158       .  T
C1412      N1417   1.157       .  T
C1413      N1415   1.157       .  T
C1414      N1416   1.157       .  T
C1419      C1420   1.419       .  A
C1419      C1424   1.418       .  A
C1420      C1421   1.405       .  A
C1420      C1425   1.453       .  S
C1421      C1422   1.412       .  A
C1421      C1428   1.453       .  S
C1422      C1423   1.412       .  A
C1423      C1424   1.413       .  A
C1423      C2858   1.451       .  S
C1424      C1427   1.451       .  S
C1425      N1432   1.158       .  T
C1426      C2855   1.451       .  S
C1426      N1431   1.157       .  T
C1427      N1429   1.157       .  T
C1428      N1430   1.157       .  T
C1433      C1434   1.409       .  A
C1433      C1438   1.402       .  A
C1433      C2135   1.496       .  S
C1434      C1435   1.408       .  A
C1434      H1439   1.083       .  S
C1435      C1436   1.403       .  A
C1435      C1469   1.479       .  S
C1436      C1437   1.399       .  A
C1436      H1440   1.082       .  S
C1437      C1438   1.397       .  A
C1437      C1588   1.472       .  S
C1438      H1441   1.082       .  S
C1442      C1443   1.412       .  A
C1442      C1447   1.406       .  A
C1442      C2121   1.504       .  S
C1443      C1444   1.405       .  A
C1443      H1448   1.083       .  S
C1444      C1445   1.400       .  A
C1444      C1499   1.472       .  S
C1445      C1446   1.401       .  A
C1445      H1449   1.084       .  S
C1446      C1447   1.400       .  A
C1446      C1558   1.473       .  S
C1447      H1450   1.083       .  S
C1451      C1452   1.407       .  A
C1451      C1456   1.411       .  A
C1451      C2110   1.506       .  S
C1452      C1453   1.401       .  A
C1452      H1457   1.082       .  S
C1453      C1454   1.405       .  A
C1453      C1519   1.473       .  S
C1454      C1455   1.401       .  A
C1454      H1458   1.084       .  S
C1455      C1456   1.401       .  A
C1455      C1598   1.473       .  S
C1456      H1459   1.082       .  S
C1460      C1461   1.406       .  A
C1460      C1465   1.397       .  A
C1460      C2093   1.492       .  S
C1461      C1462   1.407       .  A
C1461      H1466   1.082       .  S
C1462      C1463   1.406       .  A
C1462      C1509   1.476       .  S
C1463      C1464   1.400       .  A
C1463      H1467   1.084       .  S
C1464      C1465   1.397       .  A
C1464      C1608   1.470       .  S
C1465      H1468   1.083       .  S
C1469      C1506   1.462       .  S
N1470      N1487   1.326       .  A
N1470     Co1507   2.080       .  S
C1471      H1516   1.081       .  S
C1471      N2212   1.340       .  A
H1472      C1513   1.082       .  S
C1473      C1477   1.459       .  S
C1473      H1502   1.081       .  S
C1473      N1497   1.335       .  A
Co1474     N1492   2.087       .  S
Co1474     N1482   2.081       .  S
Co1474     N1514   2.078       .  S
Co1474     N1490   2.085       .  S
N1475      C1513   1.344       .  A
N1475     Co1476   2.091       .  S
Co1476     N1479   2.096       .  S
Co1476     N1496   2.082       .  S
Co1476     N1483   2.094       .  S
Co1476    Cl1518   2.477       .  S
C1477      C1526   1.484       .  S
C1477      N1515   1.356       .  A
N1478      N1485   1.318       .  A
N1478      N1508   1.322       .  A
N1478     Co1511   2.079       .  S
N1479      N1497   1.319       .  A
N1479      N1515   1.329       .  A
N1480      C1509   1.350       .  A
N1480      N2206   1.323       .  A
H1481      C1506   1.081       .  S
N1482      N1503   1.323       .  A
N1483      N1501   1.319       .  A
N1483      N2204   1.327       .  A
C1484      C1512   1.459       .  S
C1484      C1553   1.476       .  S
C1484      N1488   1.353       .  A
N1485      C1500   1.344       .  A
N1485     Co1507   2.089       .  S
C1486      C1489   1.457       .  S
C1486      H1520   1.082       .  S
C1486      N2230   1.335       .  A
N1488      N2199   1.327       .  A
C1489      C1535   1.473       .  S
N1490      N2196   1.323       .  A
N1491      C2233   1.342       .  A
N1491      N1493   1.319       .  A
N1491     Co1507   2.082       .  S
N1492      C1506   1.338       .  A
N1493      N2237   1.324       .  A
N1493     Co1511   2.088       .  S
H1494      C1517   1.081       .  S
H1495      C1512   1.082       .  S
N1496      C2187   1.340       .  A
N1497     Co1511   2.078       .  S
N1498      N2226   1.328       .  A
N1498     Co1507   2.087       .  S
C1499      N1503   1.347       .  A
C1500      C1519   1.467       .  S
C1500      H1504   1.082       .  S
N1501      C2228   1.338       .  A
N1501     Co1511   2.080       .  S
C1505      C1517   1.463       .  S
C1505      C1544   1.480       .  S
C1505      N1521   1.351       .  A
Co1507    Cl1518   2.478       .  S
N1508      C1519   1.348       .  A
N1510      N2214   1.328       .  A
Co1511    Cl1518   2.422       .  S
C1512      N2217   1.338       .  A
N1514      C2202   1.335       .  A
C1517      N2207   1.342       .  A
N1521      N2209   1.324       .  A
C1522      C1523   1.409       .  A
C1522      C1527   1.415       .  A
C1522      C2079   1.507       .  S
C1523      C1524   1.400       .  A
C1523      H1528   1.082       .  S
C1524      C1525   1.399       .  A
C1524      C1578   1.477       .  S
C1525      C1526   1.403       .  A
C1525      H1529   1.079       .  S
C1526      C1527   1.404       .  A
C1527      H1530   1.082       .  S
C1531      C1532   1.410       .  A
C1531      C1536   1.410       .  A
C1531      C2065   1.501       .  S
C1532      C1533   1.403       .  A
C1532      H1537   1.084       .  S
C1533      C1534   1.397       .  A
C1533      C1566   1.470       .  S
C1534      C1535   1.399       .  A
C1534      H1538   1.085       .  S
C1535      C1536   1.403       .  A
C1536      H1539   1.083       .  S
C1540      C1541   1.408       .  A
C1540      C1545   1.414       .  A
C1540      C2054   1.511       .  S
C1541      C1542   1.400       .  A
C1541      H1546   1.081       .  S
C1542      C1543   1.399       .  A
C1542      C1573   1.472       .  S
C1543      C1544   1.400       .  A
C1543      H1547   1.083       .  S
C1544      C1545   1.405       .  A
C1545      H1548   1.080       .  S
C1549      C1550   1.410       .  A
C1549      C1554   1.411       .  A
C1549      C2037   1.507       .  S
C1550      C1551   1.401       .  A
C1550      H1555   1.083       .  S
C1551      C1552   1.400       .  A
C1551      C1594   1.470       .  S
C1552      C1553   1.401       .  A
C1552      H1556   1.084       .  S
C1553      C1554   1.404       .  A
C1554      H1557   1.083       .  S
C1558      C1595   1.460       .  S
C1558      N1576   1.352       .  A
N1559      N1576   1.326       .  A
N1559      N1581   1.319       .  A
N1559     Co1596   2.090       .  S
C1560      C1598   1.462       .  S
C1560      H1605   1.081       .  S
C1560      N1585   1.342       .  A
H1561      C1602   1.081       .  S
C1562      C1566   1.456       .  S
C1562      H1591   1.082       .  S
C1562      N1586   1.337       .  A
Co1563     N1581   2.082       .  S
Co1563     N1571   2.077       .  S
Co1563     N1603   2.076       .  S
Co1563     N1579   2.086       .  S
Co1563    Cl1607   2.436       .  S
N1564      C1602   1.338       .  A
N1564      N1571   1.318       .  A
N1564     Co1565   2.073       .  S
Co1565     N1568   2.091       .  S
Co1565     N1585   2.097       .  S
Co1565     N1572   2.080       .  S
Co1565    Cl1607   2.466       .  S
C1566      N1604   1.351       .  A
N1567      N1574   1.318       .  A
N1567      N1597   1.326       .  A
N1567     Co1600   2.082       .  S
N1568      N1586   1.321       .  A
N1568      N1604   1.327       .  A
N1569      C1598   1.348       .  A
N1569      N1579   1.326       .  A
H1570      C1595   1.082       .  S
N1571      N1592   1.323       .  A
N1572      N1590   1.319       .  A
N1572      N1577   1.324       .  A
C1573      C1601   1.457       .  S
C1573      N1577   1.351       .  A
N1574      C1589   1.332       .  A
N1574     Co1596   2.063       .  S
C1575      C1578   1.458       .  S
C1575      H1609   1.081       .  S
C1575      N1603   1.337       .  A
C1578      N1599   1.352       .  A
N1579      N1585   1.322       .  A
N1580      C1606   1.344       .  A
N1580      N1582   1.322       .  A
N1580     Co1596   2.095       .  S
N1581      C1595   1.338       .  A
N1582      N1610   1.322       .  A
N1582     Co1600   2.081       .  S
H1583      C1606   1.081       .  S
H1584      C1601   1.081       .  S
N1586     Co1600   2.080       .  S
N1587      N1599   1.326       .  A
N1587      N1603   1.319       .  A
N1587     Co1596   2.084       .  S
C1588      C1602   1.460       .  S
C1588      N1592   1.348       .  A
C1589      C1608   1.455       .  S
C1589      H1593   1.081       .  S
N1590      C1601   1.338       .  A
N1590     Co1600   2.074       .  S
C1594      C1606   1.465       .  S
C1594      N1610   1.346       .  A
Co1596    Cl1607   2.467       .  S
N1597      C1608   1.351       .  A
Co1600    Cl1607   2.433       .  S
N1611      C1616   1.351       .  A
N1611      C1615   1.349       .  A
N1611      H1643   1.038       .  S
N1612      C2335   1.348       .  A
N1612      C2336   1.347       .  A
N1613      C1618   1.355       .  A
N1613      C1617   1.359       .  A
N1613      H1644   1.035       .  S
N1614      C1621   1.354       .  A
N1614      C1622   1.350       .  A
C1615      C1623   1.388       .  A
C1615      C2347   1.411       .  A
C1616      C1632   1.410       .  A
C1616      C1624   1.386       .  A
C1617      C1625   1.384       .  A
C1617      C1634   1.424       .  A
C1618      C1633   1.429       .  A
C1618      C1626   1.391       .  A
C1619      C1631   1.405       .  A
C1619      C1627   1.385       .  A
C1619      N2328   1.348       .  A
C1620      C2350   1.409       .  A
C1620      C1628   1.387       .  A
C1620      N2328   1.347       .  A
C1621      C1629   1.383       .  A
C1621      C1632   1.413       .  A
C1622      C1630   1.389       .  A
C1622      C1633   1.419       .  A
C1623      C1624   1.374       .  A
C1623      H1635   1.083       .  S
C1624      H1636   1.083       .  S
C1625      C1626   1.372       .  A
C1625      H1637   1.082       .  S
C1626      H1638   1.080       .  S
C1627      C1628   1.374       .  A
C1627      H1639   1.082       .  S
C1628      H1640   1.082       .  S
C1629      C1630   1.373       .  A
C1629      H1641   1.082       .  S
C1630      H1642   1.081       .  S
C1631      C2331   1.411   1_545  A
C1631      C2009   1.486       .  S
C1632      C2026   1.502       .  S
C1633      C2107   1.500       .  S
C1634      C2336   1.409       .  A
C1634      C2784   1.506       .  S
N1645      C1650   1.356       .  A
N1645      C1649   1.352       .  A
N1645      H1677   1.035       .  S
N1646      C1653   1.348   1_456  A
N1646      C1654   1.350   1_455  A
N1647      C1652   1.353       .  A
N1647      C1651   1.357       .  A
N1647      H1678   1.036       .  S
N1648      C1655   1.352   1_556  A
N1648      C1656   1.350       .  A
C1649      C1657   1.386       .  A
C1650      C1666   1.421       .  A
C1650      C1658   1.389       .  A
C1651      C1659   1.385       .  A
C1652      C1667   1.421       .  A
C1652      C1660   1.388       .  A
C1653      C1665   1.408       .  A
C1653      C1661   1.386       .  A
C1654      C1668   1.410       .  A
C1654      C1662   1.386       .  A
C1655      C1663   1.386       .  A
C1655      C1666   1.413       .  A
C1656      C1664   1.386       .  A
C1656      C1667   1.413       .  A
C1657      C1658   1.368       .  A
C1657      H1669   1.082       .  S
C1658      H1670   1.080       .  S
C1659      C1660   1.379       .  A
C1659      H1671   1.082       .  S
C1660      H1672   1.082       .  S
C1661      C1662   1.375   1_554  A
C1661      H1673   1.082       .  S
C1662      H1674   1.082       .  S
C1663      C1664   1.372   1_554  A
C1663      H1675   1.081       .  S
C1664      H1676   1.082       .  S
C1665      C2096   1.492       .  S
C1666      C2082   1.502       .  S
C1667      C1981   1.499       .  S
C1668      C1998   1.504       .  S
N1679      C1684   1.353       .  A
N1679      C1683   1.352       .  A
N1679      H1711   1.038       .  S
N1681      C1686   1.353       .  A
N1681      C1685   1.354       .  A
N1681      H1712   1.039       .  S
N1682      C1689   1.351       .  A
N1682      C1690   1.349       .  A
C1683      C1691   1.385       .  A
C1684      C1700   1.421       .  A
C1684      C1692   1.391       .  A
C1685      C1693   1.387       .  A
C1686      C1701   1.420       .  A
C1686      C1694   1.387       .  A
C1687      C1699   1.409       .  A
C1687      C1695   1.385       .  A
C1688      C1702   1.411       .  A
C1688      C1696   1.386       .  A
C1689      C1697   1.386       .  A
C1689      C1700   1.412       .  A
C1690      C1698   1.387       .  A
C1690      C1701   1.413       .  A
C1691      C1692   1.367       .  A
C1691      H1703   1.082       .  S
C1692      H1704   1.079       .  S
C1693      C1694   1.378       .  A
C1693      H1705   1.082       .  S
C1694      H1706   1.082       .  S
C1695      C1696   1.376       .  A
C1695      H1707   1.082       .  S
C1696      H1708   1.082       .  S
C1697      C1698   1.372       .  A
C1697      H1709   1.082       .  S
C1698      H1710   1.082       .  S
C1699      C2138   1.497       .  S
C1700      C2051   1.497       .  S
C1701      C1956   1.500       .  S
C1702      C1970   1.501       .  S
N1713      C1718   1.352       .  A
N1713      C1717   1.353       .  A
N1713      H1745   1.036       .  S
N1714      C1721   1.349   1_554  A
N1714      C1722   1.347       .  A
N1715      C1720   1.357       .  A
N1715      C1719   1.357       .  A
N1715      H1746   1.037       .  S
N1716      C2439   1.350   1_554  A
N1716      C2440   1.349       .  A
C1717      C1725   1.385       .  A
C1717      C1733   1.412       .  A
C1718      C2450   1.416       .  A
C1718      C1726   1.388       .  A
C1719      C1727   1.387       .  A
C1719      C1736   1.423       .  A
C1720      C2451   1.422       .  A
C1720      C1728   1.387       .  A
C1721      C1733   1.408       .  A
C1721      C1729   1.383       .  A
C1722      C1736   1.414       .  A
C1722      C1730   1.388       .  A
C1723      C1731   1.385       .  A
C1723      C1734   1.415   1_545  A
C1723      N2432   1.350   1_546  A
C1724      C1732   1.387       .  A
C1724      C1735   1.417       .  A
C1724      N2432   1.349   1_545  A
C1725      C1726   1.371       .  A
C1725      H1737   1.083       .  S
C1726      H1738   1.083       .  S
C1727      C1728   1.373       .  A
C1727      H1739   1.082       .  S
C1728      H1740   1.082       .  S
C1729      C1730   1.373   1_556  A
C1729      H1741   1.081       .  S
C1730      H1742   1.081       .  S
C1731      C1732   1.374   1_556  A
C1731      H1743   1.081       .  S
C1732      H1744   1.081       .  S
C1733      C1939   1.494       .  S
C1734      C2434   1.416       .  A
C1734      C1928   1.499   1_565  S
C1735      C2436   1.422   1_545  A
C1735      C2040   1.505       .  S
C1736      C2124   1.500       .  S
C1747      C1748   1.404       .  A
C1747      C1752   1.410       .  A
C1747      C1942   1.501       .  S
C1748      C1749   1.399       .  A
C1748      H1753   1.083       .  S
C1749      C1750   1.402       .  A
C1749      C1801   1.474       .  S
C1750      C1751   1.402       .  A
C1750      H1754   1.082       .  S
C1751      C1752   1.405       .  A
C1751      C1902   1.477       .  S
C1752      H1755   1.082       .  S
C1756      C1757   1.414       .  A
C1756      C1761   1.410       .  A
C1756      C1995   1.506       .  S
C1757      C1758   1.406       .  A
C1757      H1762   1.083       .  S
C1758      C1759   1.401       .  A
C1758      C1821   1.476       .  S
C1759      C1760   1.397       .  A
C1759      H1763   1.085       .  S
C1760      C1761   1.400       .  A
C1760      C1880   1.470       .  S
C1761      H1764   1.084       .  S
C1765      C1766   1.408       .  A
C1765      C1770   1.407       .  A
C1765      C1925   1.500       .  S
C1766      C1767   1.400       .  A
C1766      H1771   1.083       .  S
C1767      C1768   1.402       .  A
C1767      C1837   1.474       .  S
C1768      C1769   1.400       .  A
C1768      H1772   1.082       .  S
C1769      C1770   1.405       .  A
C1769      C1887   1.477       .  S
C1770      H1773   1.083       .  S
C1774      C1775   1.407       .  A
C1774      C1779   1.407       .  A
C1774      C1984   1.501       .  S
C1775      C1776   1.402       .  A
C1775      H1780   1.083       .  S
C1776      C1777   1.400       .  A
C1776      C1912   1.470       .  S
C1777      C1778   1.400       .  A
C1777      H1781   1.084       .  S
C1778      C1779   1.402       .  A
C1778      C1851   1.467       .  S
C1779      H1782   1.083       .  S
C1783      C1784   1.406       .  A
C1783      C1788   1.406       .  A
C1783      C1953   1.496       .  S
C1784      C1785   1.399       .  A
C1784      H1789   1.084       .  S
C1785      C1786   1.399       .  A
C1785      C1816   1.466       .  S
C1786      C1787   1.400       .  A
C1786      H1790   1.085       .  S
C1787      C1788   1.400       .  A
C1787      C1908   1.466       .  S
C1788      H1791   1.083       .  S
C1792      C1793   1.396       .  A
C1792      C1797   1.400       .  A
C1792      C2012   1.488       .  S
C1793      C1794   1.398       .  A
C1793      H1798   1.082       .  S
C1794      C1795   1.404       .  A
C1794      C1922   1.472       .  S
C1795      C1796   1.408       .  A
C1795      H1799   1.084       .  S
C1796      C1797   1.403       .  A
C1796      C1841   1.475       .  S
C1797      H1800   1.082       .  S
C1801      C1838   1.459       .  S
C1801      N1819   1.351       .  A
N1802      N1819   1.323       .  A
N1802      N1824   1.318       .  A
N1802     Co1839   2.080       .  S
C1803      C1841   1.463       .  S
C1803      H1848   1.081       .  S
C1803      N1828   1.338       .  A
H1804      C1845   1.082       .  S
C1805      C1809   1.459       .  S
C1805      H1834   1.081       .  S
C1805      N1829   1.332       .  A
Co1806     N1824   2.075       .  S
Co1806     N1814   2.076       .  S
Co1806     N1846   2.076       .  S
Co1806     N1822   2.079       .  S
Co1806    Cl1850   2.423       .  S
N1807      C1845   1.347       .  A
N1807      N1814   1.319       .  A
N1807     Co1808   2.097       .  S
Co1808     N1811   2.082       .  S
Co1808     N1828   2.077       .  S
Co1808     N1815   2.091       .  S
Co1808    Cl1850   2.475       .  S
C1809      C1865   1.477       .  S
C1809      N1847   1.353       .  A
N1810      N1817   1.320       .  A
N1810      N1840   1.322       .  A
N1810     Co1843   2.075       .  S
N1811      N1829   1.319       .  A
N1811      N1847   1.327       .  A
N1812      C1841   1.349       .  A
N1812      N1822   1.324       .  A
H1813      C1838   1.081       .  S
N1814      N1835   1.320       .  A
N1815      N1833   1.320       .  A
N1815      N1820   1.325       .  A
C1816      C1844   1.454       .  S
C1816      N1820   1.352       .  A
N1817      C1832   1.341       .  A
N1817     Co1839   2.087       .  S
C1818      C1821   1.456       .  S
C1818      H1852   1.082       .  S
C1818      N1846   1.335       .  A
C1821      N1842   1.354       .  A
N1822      N1828   1.319       .  A
N1823      C1849   1.342       .  A
N1823      N1825   1.320       .  A
N1823     Co1839   2.082       .  S
N1824      C1838   1.339       .  A
N1825      N1853   1.321       .  A
N1825     Co1843   2.077       .  S
H1826      C1849   1.081       .  S
H1827      C1844   1.082       .  S
N1829     Co1843   2.074       .  S
N1830      N1842   1.329       .  A
N1830      N1846   1.320       .  A
N1830     Co1839   2.096       .  S
C1831      C1845   1.468       .  S
C1831      C1858   1.473       .  S
C1831      N1835   1.346       .  A
C1832      C1851   1.461       .  S
C1832      H1836   1.082       .  S
N1833      C1844   1.337       .  A
N1833     Co1843   2.069       .  S
C1837      C1849   1.464       .  S
C1837      N1853   1.347       .  A
Co1839    Cl1850   2.473       .  S
N1840      C1851   1.346       .  A
Co1843    Cl1850   2.421       .  S
C1854      C1855   1.409       .  A
C1854      C1859   1.410       .  A
C1854      C1967   1.501       .  S
C1855      C1856   1.402       .  A
C1855      H1860   1.084       .  S
C1856      C1857   1.400       .  A
C1856      C1872   1.476       .  S
C1857      C1858   1.404       .  A
C1857      H1861   1.085       .  S
C1858      C1859   1.403       .  A
C1859      H1862   1.083       .  S
C1863      C1864   1.414       .  A
C1863      C1868   1.413       .  A
C1863      C2023   1.509       .  S
C1864      C1865   1.403       .  A
C1864      H1869   1.082       .  S
C1865      C1866   1.396       .  A
C1866      C1867   1.393       .  A
C1866      H1870   1.078       .  S
C1867      C1868   1.405       .  A
C1867      C1892   1.477       .  S
C1868      H1871   1.083       .  S
C1872      C1909   1.459       .  S
C1872      N1890   1.352       .  A
N1873      N1890   1.327       .  A
N1873      N1895   1.321       .  A
C1874      C1912   1.458       .  S
C1874      H1919   1.082       .  S
C1874      N1899   1.340       .  A
H1875      C1916   1.082       .  S
C1876      C1880   1.454       .  S
C1876      H1905   1.082       .  S
C1876      N1900   1.337       .  A
Co1877     N1917   2.088       .  S
Co1877     N1893   2.090       .  S
Co1877    Cl1921   2.434       .  S
N1878      C1916   1.342       .  A
N1878      N1885   1.321       .  A
Co1879     N1899   2.078       .  S
Co1879     N2602   2.074       .  S
Co1879    Cl1921   2.464       .  S
C1880      N1918   1.352       .  A
N1881      N1888   1.320   1_545  A
N1881      N1911   1.326       .  A
N1882      N1900   1.321       .  A
N1882      N1918   1.327       .  A
N1883      C1912   1.351       .  A
N1883      N1893   1.324       .  A
H1884      C1909   1.082       .  S
N1885      N1906   1.324       .  A
N1886      N1904   1.318       .  A
N1886      N1891   1.323       .  A
N1886     Co2595   2.074   1_545  S
C1887      C1915   1.464       .  S
C1887      N1891   1.348       .  A
N1888      C1903   1.334   1_565  A
C1889      C1892   1.466       .  S
C1889      H1923   1.081       .  S
C1889      N1917   1.337       .  A
C1892      N1913   1.347       .  A
N1893      N1899   1.319       .  A
N1894      C1920   1.342   1_565  A
N1894      N1896   1.319   1_565  A
N1894     Co2626   2.079       .  S
N1895      C1909   1.341       .  A
N1896      N1924   1.322       .  A
N1896     Co1914   2.080       .  S
H1897      C1920   1.082   1_565  S
H1898      C1915   1.081       .  S
N1901      N1913   1.324       .  A
N1901      N1917   1.318       .  A
N1901     Co1910   2.064       .  S
C1902      C1916   1.462       .  S
C1902      N1906   1.350       .  A
C1903      C1922   1.458       .  S
C1903      H1907   1.081   1_545  S
N1904      C1915   1.341       .  A
N1904     Co1914   2.086       .  S
C1908      C1920   1.459       .  S
C1908      N1924   1.349       .  A
Co1910     N2610   2.079       .  S
Co1910    Cl1921   2.464       .  S
N1911      C1922   1.350       .  A
Co1914    Cl2637   2.436   1_545  S
Cl1921    Co2630   2.436       .  S
C1925      C1926   1.421       .  A
C1925      C1930   1.417       .  A
C1926      C1927   1.414       .  A
C1926      C1931   1.450       .  S
C1927      C1928   1.411       .  A
C1927      C1934   1.450   1_545  S
C1928      C1929   1.414       .  A
C1929      C1930   1.405       .  A
C1929      C1932   1.451       .  S
C1930      C1933   1.453       .  S
C1931      N1938   1.157       .  T
C1932      N2653   1.156       .  T
C1933      N1935   1.158       .  T
C1934      N1936   1.157       .  T
N1937      C2648   1.156       .  T
C1939      C1940   1.411       .  A
C1939      C1944   1.408       .  A
C1940      C1941   1.406       .  A
C1940      C1945   1.451       .  S
C1941      C1942   1.418       .  A
C1941      C1948   1.452       .  S
C1942      C1943   1.424       .  A
C1943      C1944   1.413       .  A
C1943      C1946   1.452       .  S
C1944      C1947   1.450       .  S
C1945      N1952   1.157       .  T
C1946      N1951   1.158       .  T
C1947      N1949   1.157       .  T
C1948      N1950   1.158       .  T
C1953      C1954   1.415       .  A
C1953      C1958   1.420       .  A
C1954      C1955   1.411       .  A
C1954      C1959   1.451       .  S
C1955      C1956   1.415       .  A
C1955      C1962   1.450       .  S
C1956      C1957   1.411       .  A
C1957      C1958   1.405       .  A
C1957      C1960   1.451       .  S
C1958      C1961   1.453       .  S
C1959      N1966   1.157       .  T
C1960      N1965   1.156       .  T
C1961      N1963   1.158       .  T
C1962      N1964   1.157       .  T
C1967      C1968   1.417       .  A
C1967      C1972   1.420       .  A
C1968      C1969   1.413       .  A
C1968      C1973   1.451       .  S
C1969      C1970   1.413       .  A
C1969      C1976   1.450       .  S
C1970      C1971   1.411       .  A
C1971      C1972   1.410       .  A
C1971      C1974   1.450       .  S
C1972      C1975   1.452       .  S
C1973      N1980   1.157       .  T
C1975      N1977   1.158       .  T
C1976      N1978   1.157       .  T
C1981      C1982   1.414       .  A
C1981      C1986   1.409       .  A
C1982      C1983   1.415       .  A
C1982      C1987   1.451       .  S
C1983      C1984   1.419       .  A
C1983      C1990   1.452       .  S
C1984      C1985   1.422       .  A
C1985      C1986   1.404       .  A
C1985      C1988   1.453       .  S
C1986      C1989   1.452       .  S
C1987      N1994   1.157       .  T
C1988      N1993   1.158       .  T
C1989      N1991   1.157       .  T
C1990      N1992   1.158       .  T
C1995      C1996   1.419       .  A
C1995      C2000   1.421       .  A
C1996      C1997   1.415       .  A
C1996      C2001   1.452       .  S
C1997      C1998   1.413       .  A
C1997      C2004   1.450       .  S
C1998      C1999   1.411       .  A
C1999      C2000   1.411       .  A
C1999      C2002   1.450       .  S
C2000      C2003   1.452       .  S
C2001      N2008   1.158       .  T
C2002      N2007   1.157       .  T
C2003      N2005   1.158       .  T
C2004      N2006   1.157   1_655  T
C2009      C2010   1.408       .  A
C2009      C2014   1.408   1_545  A
C2010      C2011   1.409       .  A
C2010      C2015   1.450       .  S
C2011      C2012   1.418       .  A
C2011      C2018   1.451       .  S
C2012      C2013   1.418       .  A
C2013      C2014   1.403   1_545  A
C2013      C2016   1.453   1_545  S
C2014      C2733   1.451       .  S
C2015      N2022   1.157       .  T
C2016      N2737   1.158       .  T
C2017      C2730   1.451       .  S
C2017      N2019   1.156       .  T
C2018      N2020   1.157       .  T
N2021      C2732   1.158       .  T
C2023      C2024   1.424       .  A
C2023      C2028   1.420       .  A
C2024      C2025   1.416       .  A
C2024      C2029   1.451       .  S
C2025      C2026   1.410       .  A
C2025      C2032   1.450       .  S
C2026      C2027   1.412       .  A
C2027      C2028   1.408       .  A
C2027      C2030   1.451       .  S
C2028      C2031   1.452       .  S
C2029      N2036   1.157       .  T
C2030      N2035   1.156       .  T
C2031      N2033   1.158       .  T
C2032      N2034   1.157       .  T
C2037      C2038   1.419       .  A
C2037      C2042   1.422       .  A
C2038      C2039   1.414       .  A
C2038      C2043   1.450       .  S
C2039      C2040   1.414       .  A
C2039      C2046   1.451       .  S
C2040      C2041   1.413       .  A
C2041      C2042   1.410       .  A
C2041      C2760   1.453   1_545  S
C2042      C2045   1.453   1_545  S
C2043      N2050   1.157       .  T
C2044      C2757   1.453       .  S
C2044      N2049   1.157       .  T
C2045      N2047   1.158       .  T
C2046      N2048   1.157       .  T
C2051      C2052   1.410       .  A
C2051      C2056   1.407       .  A
C2052      C2053   1.410       .  A
C2052      C2057   1.451       .  S
C2053      C2054   1.423       .  A
C2053      C2060   1.451       .  S
C2054      C2055   1.426       .  A
C2055      C2056   1.407       .  A
C2055      C2058   1.450       .  S
C2056      C2059   1.453       .  S
C2057      N2064   1.157       .  T
C2058      N2063   1.157       .  T
C2059      N2061   1.157       .  T
C2060      N2062   1.157       .  T
C2065      C2066   1.421       .  A
C2065      C2070   1.416       .  A
C2066      C2067   1.410       .  A
C2066      C2071   1.452   1_545  S
C2067      C2068   1.412       .  A
C2067      C2790   1.453   1_545  S
C2068      C2069   1.417       .  A
C2068      C2350   1.506       .  S
C2069      C2070   1.414       .  A
C2069      C2072   1.451       .  S
C2070      C2073   1.451       .  S
C2071      N2078   1.158       .  T
C2072      N2077   1.157       .  T
C2073      N2075   1.157       .  T
C2074      C2783   1.453       .  S
C2074      N2076   1.157       .  T
C2079      C2080   1.420       .  A
C2079      C2084   1.424       .  A
C2080      C2081   1.411       .  A
C2080      C2085   1.451       .  S
C2081      C2082   1.412       .  A
C2081      C2088   1.450       .  S
C2082      C2083   1.410       .  A
C2083      C2084   1.409       .  A
C2083      C2086   1.451       .  S
C2084      C2087   1.451       .  S
C2085      N2092   1.158       .  T
C2086      N2091   1.157       .  T
C2087      N2089   1.158       .  T
C2088      N2090   1.157       .  T
C2093      C2094   1.416       .  A
C2093      C2098   1.420       .  A
C2094      C2095   1.410       .  A
C2094      C2099   1.451       .  S
C2095      C2096   1.411       .  A
C2096      C2097   1.410       .  A
C2097      C2098   1.404       .  A
C2097      C2100   1.453       .  S
C2098      C2101   1.453       .  S
C2099      N2106   1.157       .  T
C2100      N2105   1.157       .  T
C2101      N2103   1.158       .  T
C2102      N2104   1.157       .  T
C2107      C2108   1.409       .  A
C2107      C2112   1.414       .  A
C2108      C2109   1.408       .  A
C2108      C2113   1.453       .  S
C2109      C2110   1.426       .  A
C2109      C2116   1.453       .  S
C2110      C2111   1.419       .  A
C2111      C2112   1.411       .  A
C2111      C2114   1.452       .  S
C2112      C2115   1.451       .  S
C2113      N2120   1.157       .  T
C2114      N2119   1.157       .  T
C2115      N2117   1.157       .  T
C2116      N2118   1.158       .  T
C2121      C2122   1.425       .  A
C2121      C2126   1.417       .  A
C2122      C2123   1.407       .  A
C2122      C2127   1.453       .  S
C2123      C2124   1.410       .  A
C2123      C2130   1.454       .  S
C2124      C2125   1.414       .  A
C2125      C2126   1.413       .  A
C2125      C2128   1.451       .  S
C2126      C2129   1.451       .  S
C2127      N2134   1.158       .  T
C2128      N2133   1.157       .  T
C2129      N2131   1.157       .  T
C2130      N2132   1.157       .  T
C2135      C2136   1.419       .  A
C2135      C2140   1.418       .  A
C2136      C2137   1.405       .  A
C2136      C2141   1.453       .  S
C2137      C2138   1.412       .  A
C2137      C2144   1.453       .  S
C2138      C2139   1.412       .  A
C2139      C2140   1.413       .  A
C2140      C2143   1.451       .  S
C2141      N2148   1.158       .  T
C2142      N2147   1.157       .  T
C2143      N2145   1.157       .  T
C2144      N2146   1.157       .  T
C2149      C2150   1.409       .  A
C2149      C2154   1.402       .  A
C2149      C2851   1.496       .  S
C2150      C2151   1.408       .  A
C2150      H2155   1.083       .  S
C2151      C2152   1.403       .  A
C2151      C2185   1.479       .  S
C2152      C2153   1.399       .  A
C2152      H2156   1.082       .  S
C2153      C2154   1.397       .  A
C2153      C2304   1.472       .  S
C2154      H2157   1.082       .  S
C2158      C2159   1.412       .  A
C2158      C2163   1.406       .  A
C2158      C2837   1.504       .  S
C2159      C2160   1.405       .  A
C2159      H2164   1.083       .  S
C2160      C2161   1.400       .  A
C2160      C2215   1.472       .  S
C2161      C2162   1.401       .  A
C2161      H2165   1.084       .  S
C2162      C2163   1.400       .  A
C2162      C2274   1.472       .  S
C2163      H2166   1.083       .  S
C2167      C2168   1.407       .  A
C2167      C2172   1.411       .  A
C2167      C2826   1.506       .  S
C2168      C2169   1.401       .  A
C2168      H2173   1.082       .  S
C2169      C2170   1.405       .  A
C2169      C2235   1.473       .  S
C2170      C2171   1.401       .  A
C2170      H2174   1.084       .  S
C2171      C2172   1.401       .  A
C2171      C2314   1.473       .  S
C2172      H2175   1.082       .  S
C2176      C2177   1.406       .  A
C2176      C2181   1.397       .  A
C2176      C2809   1.492       .  S
C2177      C2178   1.407       .  A
C2177      H2182   1.082       .  S
C2178      C2179   1.406       .  A
C2178      C2225   1.476       .  S
C2179      C2180   1.400       .  A
C2179      H2183   1.084       .  S
C2180      C2181   1.397       .  A
C2180      C2324   1.470       .  S
C2181      H2184   1.083       .  S
C2185      C2222   1.462       .  S
N2186      N2203   1.326       .  A
N2186     Co2223   2.080       .  S
C2187      H2232   1.081       .  S
H2188      C2229   1.082       .  S
C2189      C2193   1.459       .  S
C2189      H2218   1.081       .  S
C2189      N2213   1.335       .  A
Co2190     N2208   2.087       .  S
Co2190     N2198   2.081       .  S
Co2190     N2230   2.078   1_565  S
Co2190     N2206   2.085   1_565  S
N2191      C2229   1.344       .  A
N2191     Co2192   2.091       .  S
Co2192     N2195   2.096       .  S
Co2192     N2212   2.082   1_565  S
Co2192     N2199   2.094   1_565  S
Co2192    Cl2234   2.477       .  S
C2193      C2242   1.484       .  S
C2193      N2231   1.356       .  A
N2194      N2201   1.318       .  A
N2194      N2224   1.322       .  A
N2194     Co2227   2.079       .  S
N2195      N2213   1.319       .  A
N2195      N2231   1.329       .  A
N2196      C2225   1.350       .  A
H2197      C2222   1.081       .  S
N2198      N2219   1.323       .  A
N2199      N2217   1.319       .  A
C2200      C2228   1.459       .  S
C2200      C2269   1.476       .  S
C2200      N2204   1.353       .  A
N2201      C2216   1.344       .  A
N2201     Co2223   2.089       .  S
C2202      C2205   1.457       .  S
C2202      H2236   1.082       .  S
C2205      C2251   1.473       .  S
N2207      N2209   1.319       .  A
N2207     Co2223   2.082   1_545  S
N2208      C2222   1.338       .  A
N2209     Co2227   2.088   1_545  S
H2210      C2233   1.081       .  S
H2211      C2228   1.082       .  S
N2213     Co2227   2.078       .  S
N2214     Co2223   2.087   1_545  S
C2215      N2219   1.347       .  A
C2216      C2235   1.467       .  S
C2216      H2220   1.082       .  S
N2217     Co2227   2.080   1_545  S
C2221      C2233   1.463       .  S
C2221      C2260   1.480       .  S
C2221      N2237   1.351       .  A
Co2223    Cl2234   2.478       .  S
N2224      C2235   1.348       .  A
Co2227    Cl2234   2.422       .  S
C2238      C2239   1.409       .  A
C2238      C2243   1.415       .  A
C2238      C2795   1.507       .  S
C2239      C2240   1.400       .  A
C2239      H2244   1.082       .  S
C2240      C2241   1.399       .  A
C2240      C2294   1.477       .  S
C2241      C2242   1.403       .  A
C2241      H2245   1.079       .  S
C2242      C2243   1.404       .  A
C2243      H2246   1.082       .  S
C2247      C2248   1.410       .  A
C2247      C2252   1.410       .  A
C2247      C2781   1.501       .  S
C2248      C2249   1.403       .  A
C2248      H2253   1.084       .  S
C2249      C2250   1.397       .  A
C2249      C2282   1.470       .  S
C2250      C2251   1.399       .  A
C2250      H2254   1.085       .  S
C2251      C2252   1.403       .  A
C2252      H2255   1.083       .  S
C2256      C2257   1.408       .  A
C2256      C2261   1.414       .  A
C2256      C2770   1.511       .  S
C2257      C2258   1.400       .  A
C2257      H2262   1.081       .  S
C2258      C2259   1.399       .  A
C2258      C2289   1.472       .  S
C2259      C2260   1.400       .  A
C2259      H2263   1.083       .  S
C2260      C2261   1.405       .  A
C2261      H2264   1.080       .  S
C2265      C2266   1.410       .  A
C2265      C2270   1.411       .  A
C2265      C2753   1.507       .  S
C2266      C2267   1.401       .  A
C2266      H2271   1.083       .  S
C2267      C2268   1.400       .  A
C2267      C2310   1.470       .  S
C2268      C2269   1.401       .  A
C2268      H2272   1.084       .  S
C2269      C2270   1.404       .  A
C2270      H2273   1.083       .  S
C2274      C2311   1.460       .  S
C2274      N2292   1.352       .  A
N2275      N2292   1.326       .  A
N2275      N2297   1.319       .  A
N2275     Co2312   2.090       .  S
C2276      C2314   1.462       .  S
C2276      H2321   1.081       .  S
C2276      N2301   1.342       .  A
H2277      C2318   1.081       .  S
C2278      C2282   1.456       .  S
C2278      H2307   1.082       .  S
C2278      N2302   1.337       .  A
Co2279     N2297   2.082       .  S
Co2279     N2287   2.077       .  S
Co2279     N2319   2.076       .  S
Co2279     N2295   2.086       .  S
Co2279    Cl2323   2.436       .  S
N2280      C2318   1.338       .  A
N2280      N2287   1.318       .  A
N2280     Co2281   2.073       .  S
Co2281     N2284   2.091       .  S
Co2281     N2301   2.097       .  S
Co2281     N2288   2.080       .  S
Co2281    Cl2323   2.466       .  S
C2282      N2320   1.351       .  A
N2283      N2290   1.318       .  A
N2283      N2313   1.326       .  A
N2283     Co2316   2.082       .  S
N2284      N2302   1.321       .  A
N2284      N2320   1.327       .  A
N2285      C2314   1.348       .  A
N2285      N2295   1.326       .  A
H2286      C2311   1.082       .  S
N2287      N2308   1.323       .  A
N2288      N2306   1.319       .  A
N2288      N2293   1.324       .  A
C2289      C2317   1.457       .  S
C2289      N2293   1.351       .  A
N2290      C2305   1.332       .  A
N2290     Co2312   2.063       .  S
C2291      C2294   1.458       .  S
C2291      H2325   1.081       .  S
C2291      N2319   1.337       .  A
C2294      N2315   1.352       .  A
N2295      N2301   1.322       .  A
N2296      C2322   1.344       .  A
N2296      N2298   1.322       .  A
N2296     Co2312   2.095       .  S
N2297      C2311   1.338       .  A
N2298      N2326   1.322       .  A
N2298     Co2316   2.081       .  S
H2299      C2322   1.081       .  S
H2300      C2317   1.081       .  S
N2302     Co2316   2.080       .  S
N2303      N2315   1.326       .  A
N2303      N2319   1.319       .  A
N2303     Co2312   2.084       .  S
C2304      C2318   1.460       .  S
C2304      N2308   1.348       .  A
C2305      C2324   1.455       .  S
C2305      H2309   1.081       .  S
N2306      C2317   1.338       .  A
N2306     Co2316   2.074       .  S
C2310      C2322   1.465       .  S
C2310      N2326   1.346       .  A
Co2312    Cl2323   2.467       .  S
N2313      C2324   1.351       .  A
Co2316    Cl2323   2.433       .  S
N2327      C2332   1.351       .  A
N2327      C2331   1.349       .  A
N2327      H2359   1.038       .  S
N2329      C2334   1.355       .  A
N2329      C2333   1.359       .  A
N2329      H2360   1.035       .  S
N2330      C2337   1.354       .  A
N2330      C2338   1.350       .  A
C2331      C2339   1.388   1_565  A
C2332      C2348   1.410       .  A
C2332      C2340   1.386       .  A
C2333      C2341   1.384       .  A
C2333      C2350   1.424   1_565  A
C2334      C2349   1.429       .  A
C2334      C2342   1.391       .  A
C2335      C2347   1.405       .  A
C2335      C2343   1.385       .  A
C2336      C2344   1.387       .  A
C2337      C2345   1.383       .  A
C2337      C2348   1.413       .  A
C2338      C2346   1.389       .  A
C2338      C2349   1.419       .  A
C2339      C2340   1.374   1_545  A
C2339      H2351   1.083       .  S
C2340      H2352   1.083       .  S
C2341      C2342   1.372       .  A
C2341      H2353   1.082   1_565  S
C2342      H2354   1.080       .  S
C2343      C2344   1.374       .  A
C2343      H2355   1.082       .  S
C2344      H2356   1.082       .  S
C2345      C2346   1.373       .  A
C2345      H2357   1.082       .  S
C2346      H2358   1.081       .  S
C2347      C2725   1.486       .  S
C2348      C2742   1.502       .  S
C2349      C2823   1.500       .  S
N2361      C2366   1.356       .  A
N2361      C2365   1.352       .  A
N2361      H2393   1.035       .  S
N2362      C2369   1.348   1_456  A
N2362      C2370   1.350   1_455  A
N2363      C2368   1.353       .  A
N2363      C2367   1.357       .  A
N2363      H2394   1.036       .  S
N2364      C2371   1.352   1_556  A
N2364      C2372   1.350       .  A
C2365      C2373   1.386       .  A
C2366      C2382   1.421       .  A
C2366      C2374   1.389       .  A
C2367      C2375   1.385       .  A
C2368      C2383   1.421       .  A
C2368      C2376   1.388       .  A
C2369      C2381   1.408       .  A
C2369      C2377   1.386       .  A
C2370      C2384   1.410       .  A
C2370      C2378   1.386       .  A
C2371      C2379   1.386       .  A
C2371      C2382   1.413       .  A
C2372      C2380   1.386       .  A
C2372      C2383   1.413       .  A
C2373      C2374   1.368       .  A
C2373      H2385   1.082       .  S
C2374      H2386   1.080       .  S
C2375      C2376   1.379       .  A
C2375      H2387   1.082       .  S
C2376      H2388   1.082       .  S
C2377      C2378   1.375   1_554  A
C2377      H2389   1.082       .  S
C2378      H2390   1.082       .  S
C2379      C2380   1.372   1_554  A
C2379      H2391   1.081       .  S
C2380      H2392   1.082       .  S
C2381      C2812   1.492       .  S
C2382      C2798   1.502       .  S
C2383      C2697   1.499       .  S
C2384      C2714   1.504       .  S
N2395      C2400   1.353       .  A
N2395      C2399   1.352       .  A
N2395      H2427   1.038       .  S
N2397      C2402   1.353       .  A
N2397      C2401   1.354       .  A
N2397      H2428   1.039       .  S
N2398      C2405   1.351       .  A
N2398      C2406   1.349       .  A
C2399      C2407   1.385       .  A
C2400      C2416   1.421       .  A
C2400      C2408   1.391       .  A
C2401      C2409   1.387       .  A
C2402      C2417   1.420       .  A
C2402      C2410   1.387       .  A
C2403      C2415   1.409       .  A
C2403      C2411   1.385       .  A
C2404      C2418   1.411       .  A
C2404      C2412   1.386       .  A
C2405      C2413   1.386       .  A
C2405      C2416   1.412       .  A
C2406      C2414   1.387       .  A
C2406      C2417   1.413       .  A
C2407      C2408   1.367       .  A
C2407      H2419   1.082       .  S
C2408      H2420   1.079       .  S
C2409      C2410   1.378       .  A
C2409      H2421   1.082       .  S
C2410      H2422   1.082       .  S
C2411      C2412   1.376       .  A
C2411      H2423   1.082       .  S
C2412      H2424   1.082       .  S
C2413      C2414   1.372       .  A
C2413      H2425   1.082       .  S
C2414      H2426   1.082       .  S
C2415      C2854   1.497       .  S
C2416      C2767   1.497       .  S
C2417      C2672   1.500       .  S
C2418      C2686   1.501       .  S
N2429      C2434   1.352       .  A
N2429      C2433   1.353       .  A
N2429      H2461   1.036       .  S
N2430      C2437   1.349   1_554  A
N2430      C2438   1.347       .  A
N2431      C2436   1.357       .  A
N2431      C2435   1.357       .  A
N2431      H2462   1.037       .  S
C2433      C2441   1.385       .  A
C2433      C2449   1.412       .  A
C2434      C2442   1.388       .  A
C2435      C2443   1.387       .  A
C2435      C2452   1.423       .  A
C2436      C2444   1.387       .  A
C2437      C2449   1.408       .  A
C2437      C2445   1.383       .  A
C2438      C2452   1.414       .  A
C2438      C2446   1.388       .  A
C2439      C2447   1.385       .  A
C2439      C2450   1.415       .  A
C2440      C2448   1.387       .  A
C2440      C2451   1.417       .  A
C2441      C2442   1.371       .  A
C2441      H2453   1.083       .  S
C2442      H2454   1.083       .  S
C2443      C2444   1.373       .  A
C2443      H2455   1.082       .  S
C2444      H2456   1.082   1_565  S
C2445      C2446   1.373   1_556  A
C2445      H2457   1.081       .  S
C2446      H2458   1.081       .  S
C2447      C2448   1.374   1_556  A
C2447      H2459   1.081       .  S
C2448      H2460   1.081       .  S
C2449      C2655   1.494       .  S
C2450      C2644   1.499       .  S
C2451      C2756   1.505       .  S
C2452      C2840   1.500       .  S
C2463      C2464   1.404       .  A
C2463      C2468   1.410       .  A
C2463      C2658   1.501       .  S
C2464      C2465   1.399       .  A
C2464      H2469   1.083       .  S
C2465      C2466   1.402       .  A
C2465      C2517   1.474       .  S
C2466      C2467   1.402       .  A
C2466      H2470   1.082       .  S
C2467      C2468   1.405       .  A
C2467      C2618   1.477       .  S
C2468      H2471   1.082       .  S
C2472      C2473   1.414       .  A
C2472      C2477   1.410       .  A
C2472      C2711   1.506       .  S
C2473      C2474   1.406       .  A
C2473      H2478   1.083       .  S
C2474      C2475   1.401       .  A
C2474      C2537   1.476       .  S
C2475      C2476   1.397       .  A
C2475      H2479   1.085       .  S
C2476      C2477   1.400       .  A
C2476      C2596   1.470       .  S
C2477      H2480   1.084       .  S
C2481      C2482   1.408       .  A
C2481      C2486   1.407       .  A
C2481      C2641   1.500       .  S
C2482      C2483   1.400       .  A
C2482      H2487   1.083       .  S
C2483      C2484   1.402       .  A
C2483      C2553   1.474       .  S
C2484      C2485   1.400       .  A
C2484      H2488   1.082       .  S
C2485      C2486   1.405       .  A
C2485      C2603   1.477       .  S
C2486      H2489   1.083       .  S
C2490      C2491   1.407       .  A
C2490      C2495   1.407       .  A
C2490      C2700   1.501       .  S
C2491      C2492   1.402       .  A
C2491      H2496   1.083       .  S
C2492      C2493   1.400       .  A
C2492      C2628   1.470       .  S
C2493      C2494   1.400       .  A
C2493      H2497   1.084       .  S
C2494      C2495   1.402       .  A
C2494      C2567   1.467       .  S
C2495      H2498   1.083       .  S
C2499      C2500   1.406       .  A
C2499      C2504   1.406       .  A
C2499      C2669   1.496       .  S
C2500      C2501   1.399       .  A
C2500      H2505   1.084       .  S
C2501      C2502   1.399       .  A
C2501      C2532   1.466       .  S
C2502      C2503   1.400       .  A
C2502      H2506   1.085       .  S
C2503      C2504   1.400       .  A
C2503      C2624   1.466       .  S
C2504      H2507   1.083       .  S
C2508      C2509   1.396       .  A
C2508      C2513   1.400       .  A
C2508      C2728   1.488       .  S
C2509      C2510   1.398       .  A
C2509      H2514   1.082       .  S
C2510      C2511   1.404       .  A
C2510      C2638   1.472       .  S
C2511      C2512   1.408       .  A
C2511      H2515   1.084       .  S
C2512      C2513   1.403       .  A
C2512      C2557   1.475       .  S
C2513      H2516   1.082       .  S
C2517      C2554   1.459       .  S
C2517      N2535   1.351       .  A
N2518      N2535   1.323       .  A
N2518      N2540   1.318       .  A
N2518     Co2555   2.080       .  S
C2519      C2557   1.463       .  S
C2519      H2564   1.081       .  S
C2519      N2544   1.338       .  A
H2520      C2561   1.082       .  S
C2521      C2525   1.459       .  S
C2521      H2550   1.081       .  S
C2521      N2545   1.332       .  A
Co2522     N2540   2.075       .  S
Co2522     N2530   2.076       .  S
Co2522     N2562   2.076       .  S
Co2522     N2538   2.079       .  S
Co2522    Cl2566   2.423       .  S
N2523      C2561   1.347       .  A
N2523      N2530   1.319       .  A
N2523     Co2524   2.097       .  S
Co2524     N2527   2.082       .  S
Co2524     N2544   2.077       .  S
Co2524     N2531   2.091       .  S
Co2524    Cl2566   2.475       .  S
C2525      C2581   1.477       .  S
C2525      N2563   1.353       .  A
N2526      N2533   1.320       .  A
N2526      N2556   1.322       .  A
N2526     Co2559   2.075       .  S
N2527      N2545   1.319       .  A
N2527      N2563   1.327       .  A
N2528      C2557   1.349       .  A
N2528      N2538   1.324       .  A
H2529      C2554   1.081       .  S
N2530      N2551   1.320       .  A
N2531      N2549   1.320       .  A
N2531      N2536   1.325       .  A
C2532      C2560   1.454       .  S
C2532      N2536   1.352       .  A
N2533      C2548   1.341       .  A
N2533     Co2555   2.087       .  S
C2534      C2537   1.456       .  S
C2534      H2568   1.082       .  S
C2534      N2562   1.335       .  A
C2537      N2558   1.354       .  A
N2538      N2544   1.319       .  A
N2539      C2565   1.342       .  A
N2539      N2541   1.320       .  A
N2539     Co2555   2.082       .  S
N2540      C2554   1.339       .  A
N2541      N2569   1.321       .  A
N2541     Co2559   2.077       .  S
H2542      C2565   1.081       .  S
H2543      C2560   1.082       .  S
N2545     Co2559   2.074       .  S
N2546      N2558   1.329       .  A
N2546      N2562   1.320       .  A
N2546     Co2555   2.096       .  S
C2547      C2561   1.468       .  S
C2547      C2574   1.473       .  S
C2547      N2551   1.346       .  A
C2548      C2567   1.461       .  S
C2548      H2552   1.082       .  S
N2549      C2560   1.337       .  A
N2549     Co2559   2.069       .  S
C2553      C2565   1.464       .  S
C2553      N2569   1.347       .  A
Co2555    Cl2566   2.473       .  S
N2556      C2567   1.346       .  A
Co2559    Cl2566   2.421       .  S
C2570      C2571   1.409       .  A
C2570      C2575   1.410       .  A
C2570      C2683   1.501       .  S
C2571      C2572   1.402       .  A
C2571      H2576   1.084       .  S
C2572      C2573   1.400       .  A
C2572      C2588   1.476       .  S
C2573      C2574   1.404       .  A
C2573      H2577   1.085       .  S
C2574      C2575   1.403       .  A
C2575      H2578   1.083       .  S
C2579      C2580   1.414       .  A
C2579      C2584   1.413       .  A
C2579      C2739   1.509       .  S
C2580      C2581   1.403       .  A
C2580      H2585   1.082       .  S
C2581      C2582   1.396       .  A
C2582      C2583   1.393       .  A
C2582      H2586   1.078       .  S
C2583      C2584   1.405       .  A
C2583      C2608   1.477       .  S
C2584      H2587   1.083       .  S
C2588      C2625   1.459       .  S
C2588      N2606   1.352       .  A
N2589      N2606   1.327       .  A
N2589      N2611   1.321       .  A
C2590      C2628   1.458       .  S
C2590      H2635   1.082       .  S
C2590      N2615   1.340       .  A
H2591      C2632   1.082       .  S
C2592      C2596   1.454       .  S
C2592      H2621   1.082       .  S
C2592      N2616   1.337       .  A
Co2593     N2633   2.088       .  S
Co2593     N2609   2.090       .  S
Co2593    Cl2637   2.434       .  S
N2594      C2632   1.342       .  A
N2594      N2601   1.321       .  A
Co2595     N2615   2.078       .  S
Co2595    Cl2637   2.464       .  S
C2596      N2634   1.352       .  A
N2597      N2604   1.320       .  A
N2597      N2627   1.326       .  A
N2598      N2616   1.321       .  A
N2598      N2634   1.327       .  A
N2599      C2628   1.351       .  A
N2599      N2609   1.324       .  A
H2600      C2625   1.082       .  S
N2601      N2622   1.324       .  A
N2602      N2620   1.318       .  A
N2602      N2607   1.323       .  A
C2603      C2631   1.464       .  S
C2603      N2607   1.348       .  A
N2604      C2619   1.334       .  A
C2605      C2608   1.466       .  S
C2605      H2639   1.081       .  S
C2605      N2633   1.337       .  A
C2608      N2629   1.347       .  A
N2609      N2615   1.319       .  A
N2610      C2636   1.342       .  A
N2610      N2612   1.319       .  A
N2611      C2625   1.341       .  A
N2612      N2640   1.322       .  A
N2612     Co2630   2.080       .  S
H2613      C2636   1.082       .  S
H2614      C2631   1.081       .  S
N2617      N2629   1.324       .  A
N2617      N2633   1.318       .  A
N2617     Co2626   2.064       .  S
C2618      C2632   1.462       .  S
C2618      N2622   1.350       .  A
C2619      C2638   1.458       .  S
C2619      H2623   1.081       .  S
N2620      C2631   1.341       .  A
N2620     Co2630   2.086       .  S
C2624      C2636   1.459       .  S
C2624      N2640   1.349       .  A
Co2626    Cl2637   2.464       .  S
N2627      C2638   1.350       .  A
C2641      C2642   1.421       .  A
C2641      C2646   1.417       .  A
C2642      C2643   1.414       .  A
C2642      C2647   1.450       .  S
C2643      C2644   1.411       .  A
C2643      C2650   1.450       .  S
C2644      C2645   1.414       .  A
C2645      C2646   1.405       .  A
C2645      C2648   1.451       .  S
C2646      C2649   1.453       .  S
C2647      N2654   1.157       .  T
C2649      N2651   1.158       .  T
C2650      N2652   1.157       .  T
C2655      C2656   1.411       .  A
C2655      C2660   1.408       .  A
C2656      C2657   1.406       .  A
C2656      C2661   1.451       .  S
C2657      C2658   1.418       .  A
C2657      C2664   1.452       .  S
C2658      C2659   1.424       .  A
C2659      C2660   1.413       .  A
C2659      C2662   1.452       .  S
C2660      C2663   1.450       .  S
C2661      N2668   1.157       .  T
C2662      N2667   1.158       .  T
C2663      N2665   1.157       .  T
C2664      N2666   1.158       .  T
C2669      C2670   1.415       .  A
C2669      C2674   1.420       .  A
C2670      C2671   1.411       .  A
C2670      C2675   1.451       .  S
C2671      C2672   1.415       .  A
C2671      C2678   1.450       .  S
C2672      C2673   1.411       .  A
C2673      C2674   1.405       .  A
C2673      C2676   1.451       .  S
C2674      C2677   1.453       .  S
C2675      N2682   1.157       .  T
C2676      N2681   1.156       .  T
C2677      N2679   1.158       .  T
C2678      N2680   1.157       .  T
C2683      C2684   1.417       .  A
C2683      C2688   1.420       .  A
C2684      C2685   1.413       .  A
C2684      C2689   1.451       .  S
C2685      C2686   1.413       .  A
C2685      C2692   1.450       .  S
C2686      C2687   1.411       .  A
C2687      C2688   1.410       .  A
C2687      C2690   1.450       .  S
C2688      C2691   1.452       .  S
C2689      N2696   1.157       .  T
C2691      N2693   1.158       .  T
C2692      N2694   1.157       .  T
C2697      C2698   1.414       .  A
C2697      C2702   1.409       .  A
C2698      C2699   1.415       .  A
C2698      C2703   1.451       .  S
C2699      C2700   1.419       .  A
C2699      C2706   1.452       .  S
C2700      C2701   1.422       .  A
C2701      C2702   1.404       .  A
C2701      C2704   1.453       .  S
C2702      C2705   1.452       .  S
C2703      N2710   1.157       .  T
C2704      N2709   1.158       .  T
C2705      N2707   1.157       .  T
C2706      N2708   1.158       .  T
C2711      C2712   1.419       .  A
C2711      C2716   1.421       .  A
C2712      C2713   1.415       .  A
C2712      C2717   1.452       .  S
C2713      C2714   1.413       .  A
C2713      C2720   1.450       .  S
C2714      C2715   1.411       .  A
C2715      C2716   1.411       .  A
C2715      C2718   1.450       .  S
C2716      C2719   1.452       .  S
C2717      N2724   1.158       .  T
C2718      N2723   1.157       .  T
C2719      N2721   1.158       .  T
C2720      N2722   1.157   1_655  T
C2725      C2726   1.408       .  A
C2725      C2730   1.408       .  A
C2726      C2727   1.409       .  A
C2726      C2731   1.450       .  S
C2727      C2728   1.418       .  A
C2727      C2734   1.451       .  S
C2728      C2729   1.418       .  A
C2729      C2730   1.403       .  A
C2729      C2732   1.453       .  S
C2731      N2738   1.157       .  T
C2733      N2735   1.156       .  T
C2734      N2736   1.157       .  T
C2739      C2740   1.424       .  A
C2739      C2744   1.420       .  A
C2740      C2741   1.416       .  A
C2740      C2745   1.451       .  S
C2741      C2742   1.410       .  A
C2741      C2748   1.450       .  S
C2742      C2743   1.412       .  A
C2743      C2744   1.408       .  A
C2743      C2746   1.451       .  S
C2744      C2747   1.452       .  S
C2745      N2752   1.157       .  T
C2746      N2751   1.156       .  T
C2747      N2749   1.158       .  T
C2748      N2750   1.157       .  T
C2753      C2754   1.419       .  A
C2753      C2758   1.422       .  A
C2754      C2755   1.414       .  A
C2754      C2759   1.450       .  S
C2755      C2756   1.414       .  A
C2755      C2762   1.451       .  S
C2756      C2757   1.413       .  A
C2757      C2758   1.410       .  A
C2758      C2761   1.453       .  S
C2759      N2766   1.157       .  T
C2760      N2765   1.157       .  T
C2761      N2763   1.158       .  T
C2762      N2764   1.157       .  T
C2767      C2768   1.410       .  A
C2767      C2772   1.407       .  A
C2768      C2769   1.410       .  A
C2768      C2773   1.451       .  S
C2769      C2770   1.423       .  A
C2769      C2776   1.451       .  S
C2770      C2771   1.426       .  A
C2771      C2772   1.407       .  A
C2771      C2774   1.450       .  S
C2772      C2775   1.453       .  S
C2773      N2780   1.157       .  T
C2774      N2779   1.157       .  T
C2775      N2777   1.157       .  T
C2776      N2778   1.157       .  T
C2781      C2782   1.421       .  A
C2781      C2786   1.416       .  A
C2782      C2783   1.410       .  A
C2782      C2787   1.452       .  S
C2783      C2784   1.412       .  A
C2784      C2785   1.417       .  A
C2785      C2786   1.414       .  A
C2785      C2788   1.451       .  S
C2786      C2789   1.451       .  S
C2787      N2794   1.158       .  T
C2788      N2793   1.157       .  T
C2789      N2791   1.157       .  T
C2790      N2792   1.157       .  T
C2795      C2796   1.420       .  A
C2795      C2800   1.424       .  A
C2796      C2797   1.411       .  A
C2796      C2801   1.451       .  S
C2797      C2798   1.412       .  A
C2797      C2804   1.450       .  S
C2798      C2799   1.410       .  A
C2799      C2800   1.409       .  A
C2799      C2802   1.451       .  S
C2800      C2803   1.451       .  S
C2801      N2808   1.158       .  T
C2802      N2807   1.157       .  T
C2803      N2805   1.158       .  T
C2804      N2806   1.157       .  T
C2809      C2810   1.416       .  A
C2809      C2814   1.420       .  A
C2810      C2811   1.410       .  A
C2810      C2815   1.451       .  S
C2811      C2812   1.411       .  A
C2812      C2813   1.410       .  A
C2813      C2814   1.404       .  A
C2813      C2816   1.453       .  S
C2814      C2817   1.453       .  S
C2815      N2822   1.157       .  T
C2816      N2821   1.157       .  T
C2817      N2819   1.158       .  T
C2818      N2820   1.157       .  T
C2823      C2824   1.409       .  A
C2823      C2828   1.414       .  A
C2824      C2825   1.408       .  A
C2824      C2829   1.453       .  S
C2825      C2826   1.426       .  A
C2825      C2832   1.453       .  S
C2826      C2827   1.419       .  A
C2827      C2828   1.411       .  A
C2827      C2830   1.452       .  S
C2828      C2831   1.451       .  S
C2829      N2836   1.157       .  T
C2830      N2835   1.157       .  T
C2831      N2833   1.157       .  T
C2832      N2834   1.158       .  T
C2837      C2838   1.425       .  A
C2837      C2842   1.417       .  A
C2838      C2839   1.407       .  A
C2838      C2843   1.453       .  S
C2839      C2840   1.410       .  A
C2839      C2846   1.454       .  S
C2840      C2841   1.414       .  A
C2841      C2842   1.413       .  A
C2841      C2844   1.451       .  S
C2842      C2845   1.451       .  S
C2843      N2850   1.158       .  T
C2844      N2849   1.157       .  T
C2845      N2847   1.157       .  T
C2846      N2848   1.157       .  T
C2851      C2852   1.419       .  A
C2851      C2856   1.418       .  A
C2852      C2853   1.405       .  A
C2852      C2857   1.453       .  S
C2853      C2854   1.412       .  A
C2853      C2860   1.453       .  S
C2854      C2855   1.412       .  A
C2855      C2856   1.413       .  A
C2856      C2859   1.451       .  S
C2857      N2864   1.158       .  T
C2858      N2863   1.157       .  T
C2859      N2861   1.157       .  T
C2860      N2862   1.157       .  T
