geometry optimzed in LAMMPS
_audit_creation_date              2020-12-01 
_audit_creation_method            'lammps2cif' 
_symmetry_space_group_name_H-M    'P1' 
_symmetry_Int_Tables_number       1 
_symmetry_cell_setting            triclinic 
loop_ 
_symmetry_equiv_pos_as_xyz 
  x,y,z 
_cell_length_a                    23.75001946 
_cell_length_b                    24.106780448960446 
_cell_length_c                    23.88959029576863 
_cell_angle_alpha                 89.65565226229276 
_cell_angle_beta                  85.48836573401371 
_cell_angle_gamma                 88.2950589164837 
loop_ 
_atom_site_label 
_atom_site_type_symbol 
_atom_site_fract_x 
_atom_site_fract_y 
_atom_site_fract_z 
_atom_site_charge 
C1          C  0.18806426  0.21552313  0.24221423     0.30000
C2          C  0.25321565  0.27621503  0.30434145     0.30000
C3          C  0.16918869  0.27777274  0.25066692    -0.06200
C4          C  0.19659120  0.19307628  0.30180486    -0.07000
C5          C  0.25101985  0.22149856  0.21574465    -0.06900
C6          C  0.20196659  0.30858554  0.28296630    -0.06200
C7          C  0.22896857  0.22394284  0.33295362    -0.07000
C8          C  0.28394254  0.25347992  0.24875391    -0.06900
C9          C  0.17924438  0.36282402  0.28442810    -0.32300
N10         N  0.13269294  0.36588628  0.25435643     0.14200
C11         C  0.12742862  0.31402472  0.23248194    -0.32300
H12         H  0.09445725  0.30281277  0.20622566     0.16200
C13         C  0.23655274  0.19480246  0.38254528    -0.31200
N14         N  0.20881613  0.14633213  0.38262064     0.13000
C15         C  0.18407196  0.14498265  0.33291824    -0.31200
C16         C  0.33474124  0.26324782  0.21782896    -0.31500
N17         N  0.33657560  0.23720636  0.16704537     0.13500
H18         H  0.36724128  0.28982015  0.23076277     0.16100
C19         C  0.28504991  0.21225701  0.16525517    -0.31500
H20         H  0.27225835  0.19037293  0.12916272     0.16100
H21         H  0.16051026  0.11051071  0.31916068     0.16100
H22         H  0.19486299  0.39735505  0.30676421     0.16200
H23         H  0.26283825  0.20673798  0.41514223     0.16100
N24         N  0.98834044  0.43355276  0.24907504    -0.36600
N25         N  0.07708878  0.51601762  0.25109947    -0.57200
N26         N  0.99015977  0.60512628  0.23478145    -0.36600
N27         N  0.90118001  0.52211081  0.24386855    -0.57200
C28         C  0.03284478  0.40105503  0.26325997     0.26900
C29         C  0.94043731  0.40523115  0.26284296     0.26900
C30         C  0.03429959  0.63458573  0.25088464     0.26900
C31         C  0.94207609  0.63754775  0.24318639     0.26900
C32         C  0.10979459  0.46863526  0.24290675     0.35600
C33         C  0.11068579  0.56025690  0.23898048     0.35600
C34         C  0.86932709  0.47703418  0.23728003     0.35600
C35         C  0.87103118  0.56675500  0.22628401     0.35600
C36         C  0.01257004  0.35213034  0.28699482    -0.21900
C37         C  0.95466471  0.35462895  0.28632875    -0.21900
C38         C  0.01313743  0.68570789  0.27101881    -0.21900
C39         C  0.95568949  0.68786619  0.26524163    -0.21900
C40         C  0.16433622  0.48301347  0.22517613    -0.23000
C41         C  0.16486526  0.54036580  0.22235514    -0.23000
C42         C  0.81903993  0.49302696  0.21559438    -0.23000
C43         C  0.82034629  0.54955457  0.20801422    -0.23000
C44         C  0.09139741  0.41272310  0.25276804    -0.18300
C45         C  0.88438117  0.42156122  0.25132553    -0.18300
C46         C  0.88617830  0.62319454  0.23118384    -0.18300
C47         C  0.09337847  0.61807726  0.24473835    -0.18300
H48         H  0.03672468  0.31798913  0.30364730     0.14600
H49         H  0.92619452  0.32265275  0.30147391     0.14600
H50         H  0.03627879  0.71826120  0.28898684     0.14600
H51         H  0.92697630  0.72216185  0.27739732     0.14600
H52         H  0.20001342  0.45513417  0.21434111     0.12900
H53         H  0.20110644  0.56425922  0.20820907     0.12900
H54         H  0.78520219  0.46665181  0.20550622     0.12900
H55         H  0.78743235  0.57490379  0.19093043     0.12900
H56         H  0.99103581  0.47023507  0.22573333     0.26100
H57         H  0.99338663  0.56686667  0.21424401     0.26100
C58         C  0.76615871  0.79972372  0.18857935     0.30000
C59         C  0.69909140  0.73816059  0.25888658     0.30000
C60         C  0.79092972  0.74155382  0.20138173    -0.06200
C61         C  0.75391578  0.82456949  0.24825035    -0.07000
C62         C  0.70625728  0.78952872  0.17024279    -0.06900
C63         C  0.75634228  0.71040646  0.23700470    -0.06200
C64         C  0.71887764  0.79315702  0.28513861    -0.07000
C65         C  0.67155109  0.75900392  0.20560525    -0.06900
C66         C  0.78857773  0.66497544  0.25345945    -0.32300
N67         N  0.84179941  0.66654523  0.22774633     0.14200
C68         C  0.84410755  0.71457363  0.19715207    -0.32300
H69         H  0.88189550  0.72943168  0.17431715     0.16200
C70         C  0.71521483  0.82122933  0.33646872    -0.31200
N71         N  0.74761253  0.86747401  0.33206182     0.13000
C72         C  0.77190284  0.86885031  0.27830127    -0.31200
C73         C  0.62055121  0.75500216  0.17986229    -0.31500
N74         N  0.62484907  0.78142224  0.12899001     0.13500
H75         H  0.58367948  0.73302702  0.19617294     0.16100
C76         C  0.67669517  0.80366797  0.12398534    -0.31500
H77         H  0.69214767  0.82722917  0.08785404     0.16100
H78         H  0.80131893  0.89962654  0.26222729     0.16100
H79         H  0.77461048  0.63350892  0.28346599     0.16200
H80         H  0.69056370  0.80911706  0.37431722     0.16100
N81         N  0.21591628  0.99906898  0.43598683    -0.36600
N82         N  0.21814762  0.91045031  0.51812563    -0.57200
N83         N  0.20989616  0.99441977  0.61064932    -0.36600
N84         N  0.21896023  0.08241385  0.52639910    -0.57200
C85         C  0.23339049  0.95545344  0.40203897     0.26900
C86         C  0.22520881  0.04665968  0.40619690     0.26900
C87         C  0.22008909  0.94623383  0.63821953     0.26900
C88         C  0.22889482  0.03640747  0.64148311     0.26900
C89         C  0.21483946  0.87915798  0.47112589     0.35600
C90         C  0.20216193  0.87824155  0.56316031     0.35600
C91         C  0.20465468  0.11597315  0.48340688     0.35600
C92         C  0.21217132  0.11308922  0.57436217     0.35600
C93         C  0.25438020  0.97604101  0.35050964    -0.21900
C94         C  0.24906575  0.03310957  0.35303547    -0.21900
C95         C  0.24556320  0.95764380  0.68694181    -0.21900
C96         C  0.25143557  0.01420703  0.68880446    -0.21900
C97         C  0.19679353  0.82680417  0.48638787    -0.23000
C98         C  0.18821394  0.82636253  0.54425745    -0.23000
C99         C  0.18770496  0.16780682  0.50470740    -0.23000
C100        C  0.19308047  0.16613252  0.56183798    -0.23000
C101        C  0.22785558  0.89750607  0.41469116    -0.18300
C102        C  0.21133903  0.10203722  0.42485647    -0.18300
C103        C  0.22497197  0.09429806  0.62894478    -0.18300
C104        C  0.20740913  0.89200735  0.62094137    -0.18300
H105        H  0.27195590  0.95245469  0.31455629     0.14600
H106        H  0.26229873  0.06135492  0.31951807     0.14600
H107        H  0.26022003  0.92823470  0.71734845     0.14600
H108        H  0.27124549  0.03607176  0.72104768     0.14600
H109        H  0.18987914  0.79266301  0.45878425     0.12900
H110        H  0.17442521  0.79122046  0.56962527     0.12900
H111        H  0.17330082  0.20352553  0.48159614     0.12900
H112        H  0.18328752  0.19993696  0.59093342     0.12900
H113        H  0.19360984  0.99695502  0.47507112     0.26100
H114        H  0.18735322  0.99824386  0.57513738     0.26100
N115        N  0.77014949  0.00917703  0.39246797    -0.36600
N116        N  0.75813023  0.92404340  0.47808970    -0.57200
N117        N  0.76510265  0.01059942  0.56679108    -0.36600
N118        N  0.76457664  0.09641664  0.48293005    -0.57200
C119        C  0.75178374  0.96664515  0.36182638     0.26900
C120        C  0.76248975  0.05679379  0.36305820     0.26900
C121        C  0.75413369  0.96391629  0.59741537     0.26900
C122        C  0.74910301  0.05529304  0.59988996     0.26900
C123        C  0.76467949  0.89152798  0.43137741     0.35600
C124        C  0.77282048  0.89212922  0.52198368     0.35600
C125        C  0.78228152  0.12620520  0.43672404     0.35600
C126        C  0.77005713  0.12885711  0.52880004     0.35600
C127        C  0.73221343  0.98792449  0.31271032    -0.21900
C128        C  0.73927307  0.04442213  0.31330624    -0.21900
C129        C  0.73073402  0.97900898  0.65032893    -0.21900
C130        C  0.72730338  0.03628661  0.65178164    -0.21900
C131        C  0.78330160  0.83887668  0.44567478    -0.23000
C132        C  0.78942397  0.83947139  0.50251517    -0.23000
C133        C  0.79934559  0.17771503  0.45376852    -0.23000
C134        C  0.79104176  0.17955947  0.51162299    -0.23000
C135        C  0.75438041  0.90896693  0.37587004    -0.18300
C136        C  0.77616200  0.11120432  0.37936395    -0.18300
C137        C  0.75685567  0.11267621  0.58591784    -0.18300
C138        C  0.76694519  0.90804808  0.57987960    -0.18300
H139        H  0.71387532  0.96543492  0.27992412     0.14600
H140        H  0.72723882  0.07314727  0.28108952     0.14600
H141        H  0.71694386  0.95158502  0.68439076     0.14600
H142        H  0.71063421  0.06107392  0.68725155     0.14600
H143        H  0.79320442  0.80409310  0.41784020     0.12900
H144        H  0.80464446  0.80470808  0.52646734     0.12900
H145        H  0.81524246  0.21114217  0.42711811     0.12900
H146        H  0.80026490  0.21396662  0.53796826     0.12900
H147        H  0.79106081  0.00603767  0.42887864     0.26100
H148        H  0.78780505  0.01110896  0.52797920     0.26100
C149        C  0.20883092  0.76037167  0.79503470     0.30000
C150        C  0.27842738  0.71455100  0.71206862     0.30000
C151        C  0.19181827  0.70278994  0.77568343    -0.06200
C152        C  0.21231651  0.79397421  0.73962888    -0.07000
C153        C  0.27131885  0.75087200  0.80764063    -0.06900
C154        C  0.22756281  0.67828109  0.73298848    -0.06200
C155        C  0.24843159  0.77008757  0.69850358    -0.07000
C156        C  0.30723646  0.72649329  0.76667735    -0.06900
C157        C  0.20152251  0.62998786  0.71816445    -0.32300
N158        N  0.15084517  0.62649193  0.74902605     0.14200
C159        C  0.14430492  0.67128442  0.78317163    -0.32300
H160        H  0.10636964  0.68113812  0.80976264     0.16200
C161        C  0.24833019  0.80329702  0.65143109    -0.31200
N162        N  0.21229447  0.84685854  0.66122812     0.13000
C163        C  0.18968536  0.84208031  0.71561613    -0.31200
C164        C  0.36039535  0.72189859  0.78881584    -0.31500
N165        N  0.35726739  0.74528357  0.84125167     0.13500
H166        H  0.39817901  0.70270789  0.76821049     0.16100
C167        C  0.30282332  0.76344633  0.85174795    -0.31500
H168        H  0.28707042  0.78501611  0.88942118     0.16100
H169        H  0.15980275  0.87153951  0.73627898     0.16100
H170        H  0.21701426  0.60059061  0.68613409     0.16200
H171        H  0.27364909  0.79717111  0.61236110     0.16100
N172        N  0.09166904  0.48410635  0.75555585    -0.36600
N173        N  0.00377187  0.40278007  0.76253718    -0.57200
N174        N  0.91803929  0.49336714  0.74113264    -0.36600
N175        N  0.00584582  0.57421577  0.74481380    -0.57200
C176        C  0.11984631  0.43974662  0.77651624     0.26900
C177        C  0.12186957  0.52971113  0.76393640     0.26900
C178        C  0.88550885  0.44908323  0.75563483     0.26900
C179        C  0.88619556  0.54109977  0.75110546     0.26900
C180        C  0.05082785  0.36886549  0.75714552     0.35600
C181        C  0.96071025  0.37380491  0.74414655     0.35600
C182        C  0.05422525  0.60133306  0.73086585     0.35600
C183        C  0.96271461  0.60774595  0.72933142     0.35600
C184        C  0.16834147  0.45765323  0.79869538    -0.21900
C185        C  0.16970789  0.51434215  0.79057659    -0.21900
C186        C  0.83222822  0.46917080  0.77534001    -0.21900
C187        C  0.83263425  0.52666482  0.77232083    -0.21900
C188        C  0.03783522  0.31848049  0.73499891    -0.23000
C189        C  0.98133084  0.32192953  0.72572045    -0.23000
C190        C  0.04183724  0.65174450  0.70592726    -0.23000
C191        C  0.98404920  0.65573077  0.70472596    -0.23000
C192        C  0.10556034  0.38317608  0.77147409    -0.18300
C193        C  0.10886246  0.58440523  0.74579550    -0.18300
C194        C  0.90426052  0.59700328  0.74026041    -0.18300
C195        C  0.90232240  0.39127598  0.74932023    -0.18300
H196        H  0.19991964  0.43242175  0.81807664     0.14600
H197        H  0.20242707  0.54113554  0.80261908     0.14600
H198        H  0.79672117  0.44516906  0.79142384     0.14600
H199        H  0.79756388  0.55456386  0.78524729     0.14600
H200        H  0.06639069  0.28349205  0.72499967     0.12900
H201        H  0.95831095  0.28962068  0.70716501     0.12900
H202        H  0.07143521  0.68273605  0.69074291     0.12900
H203        H  0.96060354  0.69009150  0.68749247     0.12900
H204        H  0.05702923  0.48285807  0.73121082     0.26100
H205        H  0.95863199  0.49049721  0.72084267     0.26100
C206        C  0.72105198  0.27908050  0.72915363     0.30000
C207        C  0.79604069  0.20632750  0.77226825     0.30000
C208        C  0.77954967  0.30278688  0.73786874    -0.06200
C209        C  0.70298428  0.25403822  0.78713972    -0.07000
C210        C  0.73639636  0.22662352  0.69182958    -0.06900
C211        C  0.81622652  0.26653755  0.76233803    -0.06200
C212        C  0.73955891  0.21619354  0.81081386    -0.07000
C213        C  0.77445249  0.19022946  0.71504697    -0.06900
C214        C  0.86372953  0.29608755  0.77207374    -0.32300
N215        N  0.85927101  0.34850678  0.75031039     0.14200
C216        C  0.80786851  0.35228138  0.72840433    -0.32300
H217        H  0.79221284  0.38827024  0.70651838     0.16200
C218        C  0.71071085  0.20229059  0.86319513    -0.31200
N219        N  0.65912288  0.23057387  0.86969937     0.13000
C220        C  0.65574743  0.26274191  0.82369400    -0.31200
C221        C  0.78577884  0.14635141  0.67813871    -0.31500
N222        N  0.75628347  0.15353428  0.63196949     0.13500
H223        H  0.81385638  0.11111269  0.68468265     0.16100
C224        C  0.72608242  0.20301708  0.63968671    -0.31500
H225        H  0.69836080  0.22053820  0.60993815     0.16100
H226        H  0.62038681  0.29072578  0.81709326     0.16100
H227        H  0.89907657  0.28002818  0.79378822     0.16200
H228        H  0.72590705  0.17360180  0.89392923     0.16100
N229        N  0.58027968  0.78272569  0.98051178    -0.36600
N230        N  0.50293642  0.76204204  0.89455731    -0.57200
N231        N  0.40541909  0.77586518  0.98199485    -0.36600
N232        N  0.48346409  0.78625395  0.06746994    -0.57200
C233        C  0.61716650  0.76937827  0.93555495     0.26900
C234        C  0.60647586  0.77074679  0.02808068     0.26900
C235        C  0.38310306  0.74782252  0.94019625     0.26900
C236        C  0.37063237  0.76958298  0.02974704     0.26900
C237        C  0.54969747  0.77617972  0.86108102     0.35600
C238        C  0.45783554  0.76423473  0.86243783     0.35600
C239        C  0.52695042  0.79640041  0.09938841     0.35600
C240        C  0.43493979  0.80283016  0.09775076     0.35600
C241        C  0.66707552  0.74864109  0.95474799    -0.21900
C242        C  0.66016884  0.74875732  0.01259616    -0.21900
C243        C  0.33459105  0.72214982  0.96259709    -0.21900
C244        C  0.32614990  0.73686385  0.01845038    -0.21900
C245        C  0.53363669  0.78808036  0.80761907    -0.23000
C246        C  0.47608972  0.78037137  0.80841328    -0.23000
C247        C  0.50598037  0.82006722  0.14975359    -0.23000
C248        C  0.44803557  0.82444247  0.14858059    -0.23000
C249        C  0.60690667  0.77514864  0.87761636    -0.18300
C250        C  0.58504476  0.78224391  0.08495364    -0.18300
C251        C  0.37900484  0.79140047  0.08364196    -0.18300
C252        C  0.40084984  0.75089415  0.88136120    -0.18300
H253        H  0.70417830  0.73320584  0.92982365     0.14600
H254        H  0.69148347  0.73367769  0.03993703     0.14600
H255        H  0.30718784  0.69619261  0.94067304     0.14600
H256        H  0.29186559  0.72388908  0.04768061     0.14600
H257        H  0.56028649  0.80166587  0.77164654     0.12900
H258        H  0.45069180  0.78739255  0.77328562     0.12900
H259        H  0.52988821  0.83286878  0.18392658     0.12900
H260        H  0.41872869  0.84029323  0.18208424     0.12900
H261        H  0.54131844  0.80331836  0.97859426     0.26100
H262        H  0.43931519  0.80245499  0.97691013     0.26100
N263        N  0.58640711  0.23869093  0.01666156    -0.36600
N264        N  0.50814223  0.23705886  0.93094700    -0.57200
N265        N  0.41105859  0.23792693  0.01933968    -0.36600
N266        N  0.48872651  0.25017098  0.10563980    -0.57200
C267        C  0.62156323  0.24677816  0.96950244     0.26900
C268        C  0.60908556  0.26398065  0.05993948     0.26900
C269        C  0.38473737  0.25220280  0.97235342     0.26900
C270        C  0.37408357  0.24829895  0.06526519     0.26900
C271        C  0.55626907  0.22164563  0.89914843     0.35600
C272        C  0.46415407  0.23061878  0.89857215     0.35600
C273        C  0.53421078  0.24485691  0.13696326     0.35600
C274        C  0.44199449  0.23540221  0.13883224     0.35600
C275        C  0.66656068  0.27787293  0.98265956    -0.21900
C276        C  0.65812935  0.28976040  0.03916183    -0.21900
C277        C  0.33076059  0.27271506  0.98912493    -0.21900
C278        C  0.32396330  0.26977763  0.04710937    -0.21900
C279        C  0.54241839  0.20498816  0.84670333    -0.23000
C280        C  0.48459361  0.21088480  0.84622995    -0.23000
C281        C  0.51630375  0.22607418  0.19015318    -0.23000
C282        C  0.45849688  0.21987278  0.19125427    -0.23000
C283        C  0.61279937  0.22864958  0.91443287    -0.18300
C284        C  0.59120614  0.25829787  0.11844052    -0.18300
C285        C  0.38454492  0.23881020  0.12306987    -0.18300
C286        C  0.40588561  0.24335054  0.91465751    -0.18300
H287        H  0.70101046  0.29189010  0.95421338     0.14600
H288        H  0.68580197  0.31404828  0.06253632     0.14600
H289        H  0.29909266  0.28822865  0.96235231     0.14600
H290        H  0.28660817  0.28318429  0.07289138     0.14600
H291        H  0.57103432  0.19082200  0.81188772     0.12900
H292        H  0.46054175  0.20101801  0.81119852     0.12900
H293        H  0.54213547  0.21663739  0.22448814     0.12900
H294        H  0.43196352  0.20498341  0.22671971     0.05500
H295        H  0.55196413  0.21271075  0.02017446     0.26100
H296        H  0.45016206  0.21727832  0.01977771     0.26100
C297        C  0.73725414  0.73126146  0.69864388     0.30000
C298        C  0.80385857  0.79346078  0.75775491     0.30000
C299        C  0.79074733  0.70031972  0.71653535    -0.06200
C300        C  0.75781187  0.78491749  0.67011377    -0.07000
C301        C  0.70893372  0.75219649  0.75553602    -0.06900
C302        C  0.82473591  0.73179401  0.74694474    -0.06200
C303        C  0.79096311  0.81648661  0.69978120    -0.07000
C304        C  0.74216068  0.78548239  0.78691739    -0.06900
C305        C  0.86905294  0.69628054  0.76136113    -0.32300
N306        N  0.86314676  0.64419696  0.73998964     0.14200
C307        C  0.81435397  0.64650162  0.71345146    -0.32300
H308        H  0.79750170  0.61160982  0.69268031     0.16200
C309        C  0.79860034  0.86622174  0.67021320    -0.31200
N310        N  0.77047980  0.86484503  0.62269833     0.13000
C311        C  0.74468534  0.81537797  0.62308444    -0.31200
C312        C  0.70712054  0.79877133  0.83572777    -0.31500
N313        N  0.65538846  0.77405504  0.83455231     0.13500
H314        H  0.71886253  0.82408225  0.86994035     0.16100
C315        C  0.65763019  0.74480466  0.78583087    -0.31500
H316        H  0.62460666  0.71848581  0.77362774     0.16100
H317        H  0.71682381  0.80322085  0.59197013     0.16100
H318        H  0.90355836  0.70796250  0.78543115     0.16200
H319        H  0.82180967  0.90128874  0.68315180     0.16100
C320        C  0.78253959  0.24413771  0.20530935     0.30000
C321        C  0.71358055  0.29147790  0.28795845     0.30000
C322        C  0.80113301  0.30120896  0.22527149    -0.06200
C323        C  0.72048222  0.25526405  0.19225286    -0.07000
C324        C  0.77718395  0.21004565  0.26055257    -0.06900
C325        C  0.76568398  0.32647348  0.26757645    -0.06200
C326        C  0.68488608  0.28033166  0.23312810    -0.07000
C327        C  0.74148700  0.23498903  0.30152733    -0.06900
C328        C  0.79185204  0.37529883  0.28114508    -0.32300
N329        N  0.84237272  0.37872779  0.24974165     0.14200
C330        C  0.84848560  0.33311810  0.21651026    -0.32300
H331        H  0.88590094  0.32320827  0.18919817     0.16200
C332        C  0.63177675  0.28541899  0.21108306    -0.31200
N333        N  0.63469016  0.26199853  0.15873631     0.13000
C334        C  0.68882802  0.24292527  0.14818834    -0.31200
C335        C  0.73870248  0.20106009  0.34805374    -0.31500
N336        N  0.77263228  0.15590384  0.33833410     0.13500
H337        H  0.71313628  0.20816470  0.38688111     0.16100
C338        C  0.79665093  0.16038148  0.28439575    -0.31500
H339        H  0.82557035  0.12988314  0.26402843     0.16100
H340        H  0.70427943  0.22113565  0.11046239     0.16100
H341        H  0.77613953  0.40545208  0.31234957     0.16200
H342        H  0.59412128  0.30492130  0.23162096     0.16100
C343        C  0.29015467  0.26488090  0.73558588     0.30000
C344        C  0.22760748  0.20691833  0.81353213     0.30000
C345        C  0.23293568  0.29321148  0.75828062    -0.06200
C346        C  0.27130856  0.20739086  0.71613422    -0.07000
C347        C  0.31960284  0.25284781  0.79099907    -0.06900
C348        C  0.20020330  0.26322963  0.79733338    -0.06200
C349        C  0.23891226  0.17765070  0.75599629    -0.07000
C350        C  0.28728039  0.22206676  0.82901524    -0.06900
C351        C  0.14837466  0.29224131  0.80639203    -0.32300
N352        N  0.14993213  0.34013307  0.77545323     0.14200
C353        C  0.20155246  0.34093209  0.74664443    -0.32300
H354        H  0.21444352  0.37399961  0.71830113     0.16200
C355        C  0.21653467  0.13396821  0.72780899    -0.31200
N356        N  0.23622093  0.13474240  0.67235909     0.13000
C357        C  0.26924766  0.18011245  0.66511927    -0.31200
C358        C  0.31643919  0.21467648  0.87677149    -0.31500
N359        N  0.36512381  0.24226649  0.87146635     0.13500
H360        H  0.30288058  0.19154144  0.91389526     0.16100
C361        C  0.36733969  0.26675825  0.81949728    -0.31500
H362        H  0.40041735  0.29442811  0.80549567     0.16100
H363        H  0.28910307  0.19346784  0.62518222     0.16100
H364        H  0.11205762  0.27905280  0.83278482     0.16200
H365        H  0.18655498  0.10475574  0.74613435     0.16100
C366        C  0.27258675  0.73562501  0.26824311     0.30000
C367        C  0.19549672  0.80630697  0.22554303     0.30000
C368        C  0.21518913  0.70964503  0.25750676    -0.06200
C369        C  0.25440002  0.78660895  0.30658506    -0.07000
C370        C  0.29081805  0.76294572  0.21144997    -0.06900
C371        C  0.17739767  0.74517981  0.23365446    -0.06200
C372        C  0.21531262  0.82196956  0.28358102    -0.07000
C373        C  0.25277770  0.79931696  0.18777326    -0.06900
C374        C  0.13052210  0.71452296  0.22363010    -0.32300
N375        N  0.13622685  0.66167431  0.24418376     0.14200
C376        C  0.18821136  0.65896675  0.26557645    -0.32300
H377        H  0.20515754  0.62319052  0.28681777     0.16200
C378        C  0.20163667  0.86467139  0.32129733    -0.31200
N379        N  0.23080023  0.85775535  0.36767226     0.13000
C380        C  0.26308251  0.80965630  0.35935845    -0.31200
C381        C  0.28086711  0.81441221  0.13547786    -0.31500
N382        N  0.33373320  0.78874461  0.12922957     0.13500
H383        H  0.26409732  0.84158991  0.10429295     0.16100
C384        C  0.33893572  0.75725155  0.17553008    -0.31500
H385        H  0.37568909  0.73121395  0.18244282     0.16100
H386        H  0.29096688  0.79272962  0.38925541     0.16100
H387        H  0.09452434  0.73029668  0.20273404     0.16200
H388        H  0.17223694  0.89894520  0.31517890     0.16100
N389        N  0.96154657  0.90191299  0.08707100    -0.06100
N390        N  0.98906427  0.87214274  0.12254349    -0.58300
N391        N  0.87325176  0.96009801  0.00130743    -0.05800
N392        N  0.81906893  0.95842108  0.99469762    -0.60400
N393        N  0.89912901  0.91507681  0.98138257    -0.05400
N394        N  0.86236033  0.88130667  0.96310647    -0.58200
N395        N  0.94293025  0.94896425  0.10978307    -0.05100
N396        N  0.96139510  0.95302589  0.16044401    -0.60700
C397        C  0.99059043  0.90462789  0.16774988     0.96000
C398        C  0.81191133  0.90454296  0.98265385     0.95800
N399        N  0.92095833  0.11996515  0.97968199    -0.06300
N400        N  0.89173718  0.16613427  0.97142313    -0.58800
N401        N  0.95571233  0.07579952  0.10667332    -0.04500
N402        N  0.96764642  0.07382663  0.15991423    -0.60100
N403        N  0.98450363  0.11487134  0.08062088    -0.06400
N404        N  0.01321068  0.14234628  0.11485800    -0.59100
N405        N  0.88679298  0.08073633  0.99681874    -0.04100
N406        N  0.83429908  0.09796583  0.99435951    -0.60200
Mn407      Mn  0.91209211  0.01656043  0.05593209     1.18400
C408        C  0.83798278  0.15348333  0.98946288     0.98100
C409        C  0.00358465  0.11615136  0.16397666     0.98800
N410        N  0.00978241  0.89290490  0.91196167    -0.06400
N411        N  0.97987507  0.86679151  0.87768287    -0.62700
N412        N  0.10734339  0.92668508  0.99600858    -0.05200
N413        N  0.15956994  0.90984089  0.00125277    -0.63400
N414        N  0.07282204  0.88809286  0.01397975    -0.05900
N415        N  0.10152879  0.84264567  0.02605185    -0.63000
N416        N  0.03850688  0.93221203  0.88613681    -0.04800
N417        N  0.02531580  0.93572795  0.83336104    -0.63600
Mn418      Mn  0.98526291  0.89742071  0.99881531     1.10700
C419        C  0.98855878  0.89423737  0.82909381     0.99300
C420        C  0.15560670  0.85445703  0.00860515     0.99400
N421        N  0.09497996  0.09235375  0.01182029    -0.05900
N422        N  0.13080349  0.12413969  0.03458281    -0.61300
N423        N  0.05044296  0.05918442  0.88311676    -0.05200
N424        N  0.02994664  0.05530347  0.83329312    -0.58000
N425        N  0.03299942  0.10646318  0.90616166    -0.06500
N426        N  0.00485919  0.13663019  0.87153085    -0.60800
N427        N  0.12108115  0.04772530  0.99130567    -0.05500
N428        N  0.17450203  0.04771527  0.00161547    -0.58000
Mn429      Mn  0.00899920  0.11035995  0.99424560     1.20200
Mn430      Mn  0.08222348  0.99124239  0.93665493     1.10100
Cl431      Cl  0.99718673  0.00385207  0.99636563    -0.86000
C432        C  0.18189798  0.10058499  0.01767478     0.96300
C433        C  0.00113766  0.10413750  0.82676152     0.96100
N434        N  0.42278526  0.41153703  0.45255433    -0.06100
N435        N  0.41530916  0.35840842  0.45917828    -0.58300
N436        N  0.41259333  0.53937107  0.40393166    -0.05800
N437        N  0.39453382  0.58272752  0.37724334    -0.60400
N438        N  0.45443176  0.51340893  0.37494244    -0.05400
N439        N  0.46548209  0.53929722  0.32615687    -0.58200
N440        N  0.38018032  0.43990980  0.47699892    -0.05100
N441        N  0.34144422  0.40601245  0.49803627    -0.60700
C442        C  0.36207030  0.35473866  0.48245624     0.96000
C443        C  0.42759472  0.58286785  0.32953486     0.95800
N444        N  0.44251587  0.62435487  0.54016377    -0.06300
N445        N  0.44761484  0.67821370  0.54193781    -0.58800
N446        N  0.36666314  0.51737551  0.57790875    -0.04500
N447        N  0.32787895  0.48308500  0.59653789    -0.60100
N448        N  0.40359835  0.52403001  0.61505837    -0.06400
N449        N  0.39157672  0.49197524  0.65891927    -0.59100
N450        N  0.40692975  0.61212737  0.50359252    -0.04100
N451        N  0.38598929  0.65745863  0.48125772    -0.60200
Mn452      Mn  0.38890301  0.52750666  0.49002782     1.18400
C453        C  0.40484937  0.69858903  0.51272054     0.98100
C454        C  0.34516467  0.46502910  0.64571582     0.98800
N455        N  0.58084361  0.48178941  0.39265805    -0.06400
N456        N  0.59718735  0.50568270  0.34477105    -0.62700
N457        N  0.57796157  0.39627367  0.50373936    -0.05200
N458        N  0.60313397  0.35116745  0.52207258    -0.63400
N459        N  0.54139373  0.38371493  0.46824067    -0.05900
N460        N  0.53960027  0.32978074  0.46344283    -0.63000
N461        N  0.61644179  0.49184214  0.43015065    -0.04800
N462        N  0.65798526  0.52165456  0.40876036    -0.63600
Mn463      Mn  0.49985820  0.44630208  0.41866006     1.10700
C464        C  0.64455717  0.53211554  0.35605736     0.99300
C465        C  0.58475577  0.31042169  0.48976110     0.99400
N466        N  0.53036516  0.49575348  0.63343230    -0.05900
N467        N  0.52198026  0.47165538  0.68346823    -0.61300
N468        N  0.60281691  0.56884067  0.53115775    -0.05200
N469        N  0.64132053  0.60263816  0.50971356    -0.58000
N470        N  0.56063552  0.59716978  0.55639965    -0.06500
N471        N  0.56823830  0.65031184  0.55006123    -0.60800
N472        N  0.57122356  0.46935432  0.60355142    -0.05500
N473        N  0.59080600  0.42699311  0.63050733    -0.58000
Mn474      Mn  0.48387856  0.56175812  0.58993577     1.20200
Mn475      Mn  0.59464545  0.48148965  0.51776170     1.10100
Cl476      Cl  0.49184037  0.50422784  0.50411849    -0.86000
C477        C  0.55997774  0.42821848  0.67955217     0.96300
C478        C  0.62108881  0.65386350  0.52568222     0.96100
C479        C  0.14454859  0.88148067  0.16867144    -0.13400
C480        C  0.14531007  0.84389795  0.21349033     0.08800
C481        C  0.09673069  0.84128519  0.25175732    -0.13400
C482        C  0.04675130  0.86959125  0.24181467    -0.13400
C483        C  0.04420770  0.90208274  0.19385060     0.08800
C484        C  0.09426760  0.91096755  0.15932807    -0.13400
H485        H  0.18137607  0.88652497  0.13984634     0.12800
H486        H  0.09654084  0.81424574  0.28816134     0.12800
H487        H  0.00875291  0.86138250  0.26835021     0.12800
H488        H  0.09271707  0.93591141  0.12158387     0.12800
C489        C  0.32581771  0.64488022  0.25129735    -0.13400
C490        C  0.31959806  0.69517491  0.28170021     0.08800
C491        C  0.36694816  0.71383022  0.30700756    -0.13400
C492        C  0.41516154  0.67935842  0.30917596    -0.13400
C493        C  0.41584193  0.62487686  0.28818585     0.08800
C494        C  0.37375151  0.61053840  0.25389586    -0.13400
H495        H  0.29379775  0.63201972  0.22477171     0.12800
H496        H  0.36686663  0.75485499  0.32504322     0.12800
H497        H  0.44808311  0.69196027  0.33494810     0.12800
H498        H  0.37384971  0.56934777  0.23595169     0.12800
C499        C  0.28815498  0.32206957  0.64900901    -0.13400
C500        C  0.32047928  0.29833276  0.68999263     0.08800
C501        C  0.37293813  0.32065879  0.69763117    -0.13400
C502        C  0.38151002  0.37593764  0.68394639    -0.13400
C503        C  0.33976955  0.40600489  0.65730433     0.08800
C504        C  0.29623914  0.37723723  0.63465220    -0.13400
H505        H  0.24997672  0.30281698  0.63775875     0.12800
H506        H  0.40517976  0.29718335  0.71729858     0.12800
H507        H  0.41967566  0.39510629  0.69521902     0.12800
H508        H  0.26603492  0.39825164  0.60953657     0.12800
C509        C  0.19282354  0.18794507  0.96462010    -0.13400
C510        C  0.21178063  0.13285234  0.97215068     0.08800
C511        C  0.23412510  0.10306567  0.92438836    -0.13400
C512        C  0.22527180  0.12244959  0.87090924    -0.13400
C513        C  0.20217956  0.17603781  0.86311141     0.08800
C514        C  0.18544102  0.20818800  0.91107222    -0.13400
H515        H  0.17766252  0.21321067  0.00037015     0.12800
H516        H  0.25215208  0.06152404  0.92832579     0.12800
H517        H  0.24292701  0.09805621  0.83553649     0.12800
H518        H  0.17205399  0.25119546  0.90745857     0.12800
C519        C  0.79678066  0.16496687  0.14202296    -0.13400
C520        C  0.81285191  0.21867880  0.15410404     0.08800
C521        C  0.83174138  0.25345572  0.10903839    -0.13400
C522        C  0.83528138  0.23452745  0.05389908    -0.13400
C523        C  0.81685640  0.18158354  0.04210221     0.08800
C524        C  0.79454113  0.14851119  0.08710376    -0.13400
H525        H  0.77786535  0.13837865  0.17450111     0.12800
H526        H  0.84007314  0.29658189  0.11514726     0.12800
H527        H  0.85293786  0.26093494  0.02053310     0.12800
H528        H  0.77801110  0.10787397  0.08049723     0.12800
C529        C  0.62765105  0.27340694  0.34899891    -0.13400
C530        C  0.67605184  0.30597838  0.33939124     0.08800
C531        C  0.70208121  0.32474622  0.38639079    -0.13400
C532        C  0.67930120  0.31328455  0.44046811    -0.13400
C533        C  0.62774653  0.28584977  0.44893265     0.08800
C534        C  0.60675876  0.25989402  0.40297265    -0.13400
H535        H  0.60940181  0.25264503  0.31515817     0.12800
H536        H  0.74243719  0.34438130  0.38185400     0.12800
H537        H  0.69893365  0.33110777  0.47534712     0.12800
H538        H  0.56834174  0.23659785  0.40836021     0.12800
C539        C  0.65128938  0.72793503  0.64833724    -0.13400
C540        C  0.70423753  0.70356728  0.65736247     0.08800
C541        C  0.73546350  0.67671317  0.61201490    -0.13400
C542        C  0.71237433  0.66993878  0.56135209    -0.13400
C543        C  0.65723231  0.68917999  0.55531638     0.08800
C544        C  0.63008201  0.72429686  0.59636489    -0.13400
H545        H  0.62891026  0.75478385  0.67919831     0.12800
H546        H  0.77921060  0.66395518  0.61385813     0.12800
H547        H  0.73557073  0.64526863  0.52897105     0.12800
H548        H  0.58858962  0.74263975  0.59109496     0.12800
C549        C  0.84211190  0.87244114  0.81392244    -0.13400
C550        C  0.85048639  0.82886852  0.77556993     0.08800
C551        C  0.90216127  0.82524928  0.74148237    -0.13400
C552        C  0.94649443  0.85922581  0.75009262    -0.13400
C553        C  0.94118064  0.89627016  0.79435572     0.08800
C554        C  0.88721434  0.90689500  0.82244169    -0.13400
H555        H  0.80179719  0.87922052  0.83757891     0.12800
H556        H  0.90850921  0.79520771  0.70786923     0.12800
H557        H  0.98725379  0.85076790  0.72757812     0.12800
H558        H  0.88240532  0.93646648  0.85658401     0.12800
C559        C  0.89352480  0.16845183  0.74458209    -0.13400
C560        C  0.84572170  0.16778941  0.78405867     0.08800
C561        C  0.84703519  0.13167512  0.83002691    -0.13400
C562        C  0.89701383  0.10120434  0.83863578    -0.13400
C563        C  0.94645440  0.10788657  0.80246828     0.08800
C564        C  0.94330489  0.13945136  0.75396166    -0.13400
H565        H  0.89339846  0.19459324  0.70753548     0.12800
H566        H  0.81088874  0.12846940  0.86011688     0.12800
H567        H  0.89898665  0.07690324  0.87670593     0.12800
H568        H  0.98083310  0.14623850  0.72623012     0.12800
C569        C  0.67283787  0.37270109  0.74394770    -0.13400
C570        C  0.67491330  0.32072044  0.71630789     0.08800
C571        C  0.62385393  0.30092700  0.69938850    -0.13400
C572        C  0.57449601  0.33419742  0.70471870    -0.13400
C573        C  0.57640908  0.38967234  0.72206157     0.08800
C574        C  0.62399774  0.40628714  0.74748516    -0.13400
H575        H  0.70802269  0.38706545  0.76521977     0.12800
H576        H  0.62159606  0.25897929  0.68403031     0.12800
H577        H  0.53728784  0.31974297  0.68640094     0.12800
H578        H  0.62619729  0.44835083  0.76279191     0.12800
C579        C  0.15933825  0.75195048  0.89140330    -0.13400
C580        C  0.17830724  0.78606545  0.84587113     0.08800
C581        C  0.19497422  0.83975432  0.85705709    -0.13400
C582        C  0.19971291  0.85606432  0.91152262    -0.13400
C583        C  0.17696683  0.82424583  0.95720702     0.08800
C584        C  0.15695513  0.77154960  0.94634486    -0.13400
H585        H  0.14971504  0.70905261  0.88564518     0.12800
H586        H  0.21358748  0.86591883  0.82402290     0.12800
H587        H  0.21787380  0.89612571  0.91729616     0.12800
H588        H  0.13873180  0.74606110  0.98019661     0.12800
C589        C  0.28943111  0.68323152  0.61328987    -0.13400
C590        C  0.31589305  0.70137896  0.66029684     0.08800
C591        C  0.36295705  0.73585035  0.65074001    -0.13400
C592        C  0.38168773  0.75222718  0.59687719    -0.13400
C593        C  0.36116703  0.72607705  0.55079358     0.08800
C594        C  0.30980063  0.69829041  0.55937166    -0.13400
H595        H  0.24980705  0.66229496  0.61793249     0.12800
H596        H  0.38143944  0.75596104  0.68483568     0.12800
H597        H  0.41944108  0.77650095  0.59142999     0.12800
H598        H  0.28957901  0.68153833  0.52431149     0.12800
C599        C  0.67806265  0.68324247  0.34622864    -0.13400
C600        C  0.66600169  0.69501282  0.29096236     0.08800
C601        C  0.64495996  0.65227094  0.25861406    -0.13400
C602        C  0.63821726  0.59946465  0.27986830    -0.13400
C603        C  0.65367277  0.58736701  0.33341648     0.08800
C604        C  0.67263866  0.62964095  0.36704719    -0.13400
H605        H  0.69777891  0.71322669  0.37114720     0.12800
H606        H  0.64044491  0.65669159  0.21425157     0.12800
H607        H  0.62366730  0.56735954  0.25337405     0.12800
H608        H  0.68516468  0.62112987  0.40879507     0.12800
C609        C  0.81300091  0.79925963  0.09356605    -0.13400
C610        C  0.79566514  0.83106118  0.14163556     0.08800
C611        C  0.77580614  0.88576858  0.13420850    -0.13400
C612        C  0.76854661  0.90601195  0.08066233    -0.13400
C613        C  0.78729335  0.87457063  0.03256307     0.08800
C614        C  0.80601647  0.81955989  0.04019864    -0.13400
H615        H  0.82570676  0.75603556  0.09662086     0.12800
H616        H  0.75868904  0.91032256  0.16967434     0.12800
H617        H  0.75202954  0.94813822  0.07690717     0.12800
H618        H  0.82004247  0.79370542  0.00452618     0.12800
C619        C  0.33638356  0.27854420  0.35910138    -0.13400
C620        C  0.28455042  0.30354812  0.34728843     0.08800
C621        C  0.25176324  0.33143208  0.39100299    -0.13400
C622        C  0.27257264  0.33883727  0.44273831    -0.13400
C623        C  0.32700932  0.31926369  0.45152463     0.08800
C624        C  0.35545412  0.28316495  0.41203873    -0.13400
H625        H  0.35977204  0.25134329  0.32918815     0.12800
H626        H  0.20846095  0.34465439  0.38690574     0.12800
H627        H  0.24828384  0.36421100  0.47379577     0.12800
H628        H  0.39646436  0.26477856  0.41930877     0.12800
C629        C  0.15012568  0.13718951  0.18496762    -0.13400
C630        C  0.14129054  0.18177347  0.22204681     0.08800
C631        C  0.08797736  0.18817836  0.25289434    -0.13400
C632        C  0.04307882  0.15564704  0.24248221    -0.13400
C633        C  0.04972577  0.11648088  0.20015750     0.08800
C634        C  0.10448235  0.10404415  0.17469890    -0.13400
H635        H  0.19134827  0.12854264  0.16372699     0.12800
H636        H  0.08082032  0.21917874  0.28549886     0.12800
H637        H  0.00155016  0.16609976  0.26241426     0.12800
H638        H  0.11013523  0.07336922  0.14161577     0.12800
loop_ 
_geom_bond_atom_site_label_1 
_geom_bond_atom_site_label_2 
_geom_bond_distance 
_geom_bond_site_symmetry_2 
_ccdc_geom_bond_type 
C1            C3   1.563       .  S
C1            C5   1.587       .  S
C1            C4   1.546       .  S
C1          C630   1.507       .  S
C2            C6   1.545       .  S
C2            C8   1.558       .  S
C2            C7   1.535       .  S
C2          C620   1.483       .  S
C3           C11   1.396       .  A
C3            C6   1.374       .  A
C4           C15   1.400       .  A
C4            C7   1.353       .  A
C5           C19   1.413       .  A
C5            C8   1.403       .  A
C6            C9   1.399       .  A
C7           C13   1.395       .  A
C8           C16   1.390       .  A
C9           N10   1.365       .  A
C9           H22   1.082       .  S
N10          C11   1.371       .  A
N10          C44   1.476       .  S
C11          H12   1.082       .  S
C13          N14   1.358       .  A
C13          H23   1.081       .  S
N14          C15   1.367       .  A
N14         C102   1.468       .  S
C15          H21   1.082       .  S
C16          N17   1.366       .  A
C16          H18   1.082       .  S
N17          C19   1.383       .  A
N17         C285   1.489       .  S
C19          H20   1.082       .  S
N24          C29   1.361       .  A
N24          C28   1.360   1_655  A
N24          H56   1.043       .  S
N25          C32   1.368       .  A
N25          C33   1.367       .  A
N26          C31   1.367       .  A
N26          C30   1.365   1_655  A
N26          H57   1.045       .  S
N27          C34   1.359       .  A
N27          C35   1.358       .  A
C28          C36   1.388       .  A
C28          C44   1.429       .  A
C29          C45   1.424       .  A
C29          C37   1.384       .  A
C30          C38   1.391       .  A
C30          C47   1.444       .  A
C31          C46   1.433       .  A
C31          C39   1.383       .  A
C32          C44   1.442       .  A
C32          C40   1.384       .  A
C33          C47   1.446       .  A
C33          C41   1.389       .  A
C34          C42   1.382       .  A
C34          C45   1.419       .  A
C35          C43   1.388       .  A
C35          C46   1.425       .  A
C36          C37   1.376   1_455  A
C36          H48   1.081       .  S
C37          H49   1.082       .  S
C38          C39   1.382   1_455  A
C38          H50   1.081       .  S
C39          H51   1.082       .  S
C40          C41   1.384       .  A
C40          H52   1.082       .  S
C41          H53   1.081       .  S
C42          C43   1.375       .  A
C42          H54   1.082       .  S
C43          H55   1.082       .  S
C45         N329   1.460       .  S
C46          N67   1.469       .  S
C47         N375   1.484       .  S
C58          C60   1.543       .  S
C58          C62   1.548       .  S
C58          C61   1.552       .  S
C58         C610   1.489       .  S
C59          C63   1.552       .  S
C59          C65   1.551       .  S
C59          C64   1.570       .  S
C59         C600   1.494       .  S
C60          C68   1.400       .  A
C60          C63   1.372       .  A
C61          C72   1.386       .  A
C61          C64   1.399       .  A
C62          C76   1.391       .  A
C62          C65   1.361       .  A
C63          C66   1.390       .  A
C64          C70   1.400       .  A
C65          C73   1.407       .  A
C66          N67   1.363       .  A
C66          H79   1.082       .  S
N67          C68   1.366       .  A
C68          H69   1.082       .  S
C70          N71   1.372       .  A
C70          H80   1.081       .  S
N71          C72   1.367       .  A
N71         C135   1.473       .  S
C72          H78   1.082       .  S
C73          N74   1.367       .  A
C73          H75   1.082       .  S
N74          C76   1.354       .  A
N74         C250   1.468       .  S
C76          H77   1.077       .  S
N81          C86   1.361   1_565  A
N81          C85   1.366       .  A
N81         H113   1.038       .  S
N82          C89   1.365       .  A
N82          C90   1.359       .  A
N83          C88   1.364   1_565  A
N83          C87   1.357       .  A
N83         H114   1.040       .  S
N84          C91   1.361       .  A
N84          C92   1.364       .  A
C85          C93   1.386       .  A
C85         C101   1.435       .  A
C86         C102   1.431       .  A
C86          C94   1.386       .  A
C87          C95   1.386       .  A
C87         C104   1.421       .  A
C88         C103   1.427       .  A
C88          C96   1.386       .  A
C89         C101   1.430       .  A
C89          C97   1.383       .  A
C90         C104   1.437       .  A
C90          C98   1.390       .  A
C91          C99   1.388       .  A
C91         C102   1.436       .  A
C92         C100   1.383       .  A
C92         C103   1.430       .  A
C93          C94   1.379   1_565  A
C93         H105   1.082       .  S
C94         H106   1.082       .  S
C95          C96   1.376   1_565  A
C95         H107   1.082       .  S
C96         H108   1.081       .  S
C97          C98   1.381       .  A
C97         H109   1.082       .  S
C98         H110   1.082       .  S
C99         C100   1.381       .  A
C99         H111   1.082       .  S
C100        H112   1.082       .  S
C101        N379   1.477       .  S
C103        N356   1.473       .  S
C104        N162   1.457       .  S
N115        C120   1.357       .  A
N115        C119   1.365   1_545  A
N115        H147   1.036       .  S
N116        C123   1.364       .  A
N116        C124   1.358       .  A
N117        C122   1.367       .  A
N117        C121   1.359   1_545  A
N117        H148   1.035       .  S
N118        C125   1.359       .  A
N118        C126   1.367       .  A
C119        C127   1.386       .  A
C119        C135   1.429       .  A
C120        C136   1.424       .  A
C120        C128   1.387       .  A
C121        C129   1.386       .  A
C121        C138   1.430       .  A
C122        C137   1.435       .  A
C122        C130   1.386       .  A
C123        C135   1.426       .  A
C123        C131   1.381       .  A
C124        C138   1.433       .  A
C124        C132   1.390       .  A
C125        C133   1.391       .  A
C125        C136   1.439       .  A
C126        C134   1.382       .  A
C126        C137   1.430       .  A
C127        C128   1.377   1_565  A
C127        H139   1.082       .  S
C128        H140   1.082       .  S
C129        C130   1.381   1_565  A
C129        H141   1.082       .  S
C130        H142   1.082       .  S
C131        C132   1.377       .  A
C131        H143   1.082       .  S
C132        H144   1.081       .  S
C133        C134   1.381       .  A
C133        H145   1.082       .  S
C134        H146   1.082       .  S
C136        N336   1.457       .  S
C137        N222   1.480       .  S
C138        N310   1.461       .  S
C149        C151   1.541       .  S
C149        C153   1.548       .  S
C149        C152   1.546       .  S
C149        C580   1.493       .  S
C150        C154   1.561       .  S
C150        C156   1.552       .  S
C150        C155   1.542       .  S
C150        C590   1.496       .  S
C151        C159   1.378       .  A
C151        C154   1.397       .  A
C152        C163   1.402       .  A
C152        C155   1.370       .  A
C153        C167   1.380       .  A
C153        C156   1.370       .  A
C154        C157   1.395       .  A
C155        C161   1.377       .  A
C156        C164   1.408       .  A
C157        N158   1.366       .  A
C157        H170   1.082       .  S
N158        C159   1.355       .  A
N158        C193   1.450       .  S
C159        H160   1.082       .  S
C161        N162   1.345       .  A
C161        H171   1.078       .  S
N162        C163   1.372       .  A
C163        H169   1.082       .  S
C164        N165   1.373       .  A
C164        H166   1.082       .  S
N165        C167   1.358       .  A
N165        C252   1.474       .  S
C167        H168   1.078       .  S
N172        C177   1.355       .  A
N172        C176   1.359       .  A
N172        H204   1.045       .  S
N173        C180   1.363       .  A
N173        C181   1.358   1_455  A
N174        C179   1.370       .  A
N174        C178   1.363       .  A
N174        H205   1.045       .  S
N175        C182   1.357       .  A
N175        C183   1.359   1_455  A
C176        C184   1.386       .  A
C176        C192   1.423       .  A
C177        C193   1.418       .  A
C177        C185   1.385       .  A
C178        C186   1.389       .  A
C178        C195   1.444       .  A
C179        C194   1.442       .  A
C179        C187   1.385       .  A
C180        C192   1.423       .  A
C180        C188   1.381       .  A
C181        C195   1.433       .  A
C181        C189   1.391       .  A
C182        C190   1.384       .  A
C182        C193   1.420       .  A
C183        C191   1.386       .  A
C183        C194   1.423       .  A
C184        C185   1.380       .  A
C184        H196   1.082       .  S
C185        H197   1.082       .  S
C186        C187   1.388       .  A
C186        H198   1.081       .  S
C187        H199   1.082       .  S
C188        C189   1.377   1_455  A
C188        H200   1.082       .  S
C189        H201   1.082       .  S
C190        C191   1.376   1_455  A
C190        H202   1.082       .  S
C191        H203   1.082       .  S
C192        N352   1.465       .  S
C194        N306   1.477       .  S
C195        N215   1.472       .  S
C206        C208   1.547       .  S
C206        C210   1.569       .  S
C206        C209   1.543       .  S
C206        C570   1.512       .  S
C207        C211   1.553       .  S
C207        C213   1.553       .  S
C207        C212   1.579       .  S
C207        C560   1.523       .  S
C208        C216   1.396       .  A
C208        C211   1.376       .  A
C209        C220   1.378       .  A
C209        C212   1.389       .  A
C210        C224   1.414       .  A
C210        C213   1.386       .  A
C211        C214   1.388       .  A
C212        C218   1.422       .  A
C213        C221   1.388       .  A
C214        N215   1.368       .  A
C214        H227   1.082       .  S
N215        C216   1.366       .  A
C216        H217   1.082       .  S
C218        N219   1.383       .  A
C218        H228   1.081       .  S
N219        C220   1.347       .  A
N219        C283   1.474       .  S
C220        H226   1.082       .  S
C221        N222   1.360       .  A
C221        H223   1.083       .  S
N222        C224   1.379       .  A
C224        H225   1.082       .  S
N229        C234   1.363   1_556  A
N229        C233   1.365       .  A
N229        H261   1.041       .  S
N230        C237   1.367       .  A
N230        C238   1.365       .  A
N231        C236   1.365   1_556  A
N231        C235   1.359       .  A
N231        H262   1.043       .  S
N232        C239   1.360       .  A
N232        C240   1.362       .  A
C233        C241   1.383       .  A
C233        C249   1.429       .  A
C234        C250   1.438       .  A
C234        C242   1.390       .  A
C235        C243   1.392       .  A
C235        C252   1.437       .  A
C236        C251   1.424       .  A
C236        C244   1.381       .  A
C237        C249   1.444       .  A
C237        C245   1.387       .  A
C238        C252   1.438       .  A
C238        C246   1.386       .  A
C239        C247   1.385       .  A
C239        C250   1.427       .  A
C240        C248   1.385       .  A
C240        C251   1.431       .  A
C241        C242   1.379   1_556  A
C241        H253   1.082       .  S
C242        H254   1.081       .  S
C243        C244   1.380   1_556  A
C243        H255   1.082       .  S
C244        H256   1.082       .  S
C245        C246   1.383       .  A
C245        H257   1.082       .  S
C246        H258   1.081       .  S
C247        C248   1.380       .  A
C247        H259   1.082       .  S
C248        H260   1.082       .  S
C249        N313   1.482       .  S
C251        N382   1.471       .  S
N263        C268   1.358       .  A
N263        C267   1.365   1_554  A
N263        H295   1.043       .  S
N264        C271   1.365       .  A
N264        C272   1.361       .  A
N265        C270   1.370       .  A
N265        C269   1.365   1_554  A
N265        H296   1.041       .  S
N266        C273   1.364       .  A
N266        C274   1.367       .  A
C267        C275   1.381       .  A
C267        C283   1.421       .  A
C268        C284   1.435       .  A
C268        C276   1.392       .  A
C269        C277   1.390       .  A
C269        C286   1.444       .  A
C270        C285   1.438       .  A
C270        C278   1.384       .  A
C271        C283   1.434       .  A
C271        C279   1.385       .  A
C272        C286   1.432       .  A
C272        C280   1.387       .  A
C273        C281   1.386       .  A
C273        C284   1.436       .  A
C274        C282   1.387       .  A
C274        C285   1.444       .  A
C275        C276   1.379   1_556  A
C275        H287   1.082       .  S
C276        H288   1.082       .  S
C277        C278   1.384   1_556  A
C277        H289   1.082       .  S
C278        H290   1.082       .  S
C279        C280   1.377       .  A
C279        H291   1.082       .  S
C280        H292   1.081       .  S
C281        C282   1.384       .  A
C281        H293   1.081       .  S
C282        H294   1.081       .  S
C284        N333   1.471       .  S
C286        N359   1.470       .  S
C297        C299   1.542       .  S
C297        C301   1.549       .  S
C297        C300   1.533       .  S
C297        C540   1.481       .  S
C298        C302   1.569       .  S
C298        C304   1.589       .  S
C298        C303   1.539       .  S
C298        C550   1.507       .  S
C299        C307   1.398       .  A
C299        C302   1.375       .  A
C300        C311   1.389       .  A
C300        C303   1.353       .  A
C301        C315   1.383       .  A
C301        C304   1.402       .  A
C302        C305   1.400       .  A
C303        C309   1.397       .  A
C304        C312   1.411       .  A
C305        N306   1.373       .  A
C305        H318   1.082       .  S
N306        C307   1.364       .  A
C307        H308   1.082       .  S
C309        N310   1.363       .  A
C309        H319   1.082       .  S
N310        C311   1.356       .  A
C311        H317   1.081       .  S
C312        N313   1.384       .  A
C312        H314   1.082       .  S
N313        C315   1.361       .  A
C315        H316   1.082       .  S
C320        C322   1.547       .  S
C320        C324   1.549       .  S
C320        C323   1.546       .  S
C320        C520   1.495       .  S
C321        C325   1.563       .  S
C321        C327   1.541       .  S
C321        C326   1.552       .  S
C321        C530   1.497       .  S
C322        C330   1.383       .  A
C322        C325   1.394       .  A
C323        C334   1.380       .  A
C323        C326   1.371       .  A
C324        C338   1.404       .  A
C324        C327   1.373       .  A
C325        C328   1.399       .  A
C326        C332   1.406       .  A
C327        C335   1.375       .  A
C328        N329   1.369       .  A
C328        H341   1.082       .  S
N329        C330   1.358       .  A
C330        H331   1.082       .  S
C332        N333   1.371       .  A
C332        H342   1.082       .  S
N333        C334   1.358       .  A
C334        H340   1.079       .  S
C335        N336   1.345       .  A
C335        H337   1.080       .  S
N336        C338   1.373       .  A
C338        H339   1.082       .  S
C343        C345   1.562       .  S
C343        C347   1.567       .  S
C343        C346   1.554       .  S
C343        C500   1.502       .  S
C344        C348   1.548       .  S
C344        C350   1.547       .  S
C344        C349   1.550       .  S
C344        C513   1.492       .  S
C345        C353   1.391       .  A
C345        C348   1.381       .  A
C346        C357   1.393       .  A
C346        C349   1.386       .  A
C347        C361   1.417       .  A
C347        C350   1.371       .  A
C348        C351   1.400       .  A
C349        C355   1.394       .  A
C350        C358   1.388       .  A
C351        N352   1.367       .  A
C351        H364   1.082       .  S
N352        C353   1.359       .  A
C353        H354   1.078       .  S
C355        N356   1.370       .  A
C355        H365   1.082       .  S
N356        C357   1.367       .  A
C357        H363   1.082       .  S
C358        N359   1.348       .  A
C358        H360   1.078       .  S
N359        C361   1.369       .  A
C361        H362   1.078       .  S
C366        C368   1.557       .  S
C366        C370   1.541       .  S
C366        C369   1.567       .  S
C366        C490   1.513       .  S
C367        C371   1.554       .  S
C367        C373   1.577       .  S
C367        C372   1.551       .  S
C367        C480   1.520       .  S
C368        C376   1.402       .  A
C368        C371   1.376       .  A
C369        C380   1.413       .  A
C369        C372   1.385       .  A
C370        C384   1.378       .  A
C370        C373   1.390       .  A
C371        C374   1.391       .  A
C372        C378   1.386       .  A
C373        C381   1.420       .  A
C374        N375   1.369       .  A
C374        H387   1.082       .  S
N375        C376   1.373       .  A
C376        H377   1.081       .  S
C378        N379   1.359       .  A
C378        H388   1.083       .  S
N379        C380   1.378       .  A
C380        H386   1.082       .  S
C381        N382   1.381       .  A
C381        H383   1.081       .  S
N382        C384   1.349       .  A
C384        H385   1.083       .  S
N389        N390   1.309       .  A
N389        N395   1.310       .  A
N389       Mn418   2.142   1_554  S
N390        C397   1.341       .  A
N391        N393   1.305   1_554  A
N391        N392   1.311   1_554  A
N391       Mn407   2.166   1_565  S
N392        C398   1.351       .  A
N393        N394   1.312       .  A
N393       Mn418   2.149       .  S
N394        C398   1.357       .  A
N395        N396   1.324       .  A
N395       Mn407   2.213   1_565  S
N396        C397   1.357       .  A
C397        C483   1.461   1_655  S
C398        C613   1.480   1_556  S
N399        N405   1.307       .  A
N399        N400   1.316       .  A
N399       Mn429   2.152   1_655  S
N400        C408   1.358       .  A
N401        N402   1.325       .  A
N401        N403   1.306       .  A
N401       Mn407   2.211       .  S
N402        C409   1.358   1_655  A
N403        N404   1.301   1_655  A
N403       Mn429   2.102   1_654  S
N404        C409   1.336       .  A
N405        N406   1.308       .  A
N405       Mn407   2.191   1_556  S
N406        C408   1.348       .  A
Mn407      Cl431   2.391   1_554  S
C408        C523   1.477   1_556  S
C409        C633   1.448       .  S
N410        N411   1.302   1_455  A
N410        N416   1.307       .  A
N410       Mn418   2.113   1_455  S
N411        C419   1.338       .  A
N412        N414   1.307   1_556  A
N412        N413   1.309   1_556  A
N412       Mn430   2.200       .  S
N413        C420   1.351       .  A
N414        N415   1.316       .  A
N414       Mn418   2.144   1_454  S
N415        C420   1.357       .  A
N416        N417   1.324       .  A
N416       Mn430   2.206       .  S
N417        C419   1.356   1_455  A
Mn418      Cl431   2.589   1_565  S
C419        C553   1.449       .  S
C420        C583   1.479   1_554  S
N421        N422   1.313       .  A
N421        N427   1.304   1_554  A
N421       Mn429   2.148   1_554  S
N422        C432   1.357       .  A
N423        N424   1.326       .  A
N423        N425   1.310       .  A
N423       Mn430   2.223   1_545  S
N424        C433   1.358       .  A
N425        N426   1.308       .  A
N425       Mn429   2.138       .  S
N426        C433   1.340       .  A
N427        N428   1.311   1_556  A
N427       Mn430   2.167   1_545  S
N428        C432   1.354       .  A
Mn429      Cl431   2.591   1_455  S
Mn430      Cl431   2.392   1_465  S
C432        C510   1.481   1_554  S
C433        C563   1.464   1_455  S
N434        N435   1.305       .  A
N434        N440   1.305       .  A
N434       Mn463   2.135       .  S
N435        C442   1.346       .  A
N436        N438   1.311       .  A
N436        N437   1.300       .  A
N436       Mn452   2.109       .  S
N437        C443   1.332       .  A
N438        N439   1.330       .  A
N438       Mn463   2.219       .  S
N439        C443   1.361       .  A
N440        N441   1.317       .  A
N440       Mn452   2.155       .  S
N441        C442   1.359       .  A
C442        C623   1.455       .  S
C443        C493   1.447       .  S
N444        N450   1.303       .  A
N444        N445   1.309       .  A
N444       Mn474   2.175       .  S
N445        C453   1.356       .  A
N446        N447   1.306       .  A
N446        N448   1.310       .  A
N446       Mn452   2.139       .  S
N447        C454   1.341       .  A
N448        N449   1.316       .  A
N448       Mn474   2.177       .  S
N449        C454   1.355       .  A
N450        N451   1.315       .  A
N450       Mn452   2.129       .  S
N451        C453   1.355       .  A
Mn452      Cl476   2.540       .  S
C453        C593   1.470       .  S
C454        C503   1.455       .  S
N455        N456   1.314       .  A
N455        N461   1.308       .  A
N455       Mn463   2.173       .  S
N456        C464   1.355       .  A
N457        N459   1.304       .  A
N457        N458   1.315       .  A
N457       Mn475   2.137       .  S
N458        C465   1.356       .  A
N459        N460   1.308       .  A
N459       Mn463   2.174       .  S
N460        C465   1.355       .  A
N461        N462   1.308       .  A
N461       Mn475   2.131       .  S
N462        C464   1.344       .  A
Mn463      Cl476   2.472       .  S
C464        C603   1.450       .  S
C465        C533   1.469       .  S
N466        N467   1.329       .  A
N466        N472   1.310       .  A
N466       Mn474   2.211       .  S
N467        C477   1.361       .  A
N468        N469   1.315       .  A
N468        N470   1.305       .  A
N468       Mn475   2.149       .  S
N469        C478   1.358       .  A
N470        N471   1.305       .  A
N470       Mn474   2.133       .  S
N471        C478   1.346       .  A
N472        N473   1.298       .  A
N472       Mn475   2.102       .  S
N473        C477   1.332       .  A
Mn474      Cl476   2.474       .  S
Mn475      Cl476   2.532       .  S
C477        C573   1.441       .  S
C478        C543   1.452       .  S
C479        C480   1.399       .  A
C479        C484   1.404       .  A
C479        H485   1.079       .  S
C480        C481   1.417       .  A
C481        C482   1.388       .  A
C481        H486   1.084       .  S
C482        C483   1.388       .  A
C482        H487   1.084       .  S
C483        C484   1.414       .  A
C484        H488   1.083       .  S
C489        C490   1.415       .  A
C489        C494   1.393       .  A
C489        H495   1.081       .  S
C490        C491   1.405       .  A
C491        C492   1.399       .  A
C491        H496   1.081       .  S
C492        C493   1.408       .  A
C492        H497   1.084       .  S
C493        C494   1.394       .  A
C494        H498   1.084       .  S
C499        C500   1.400       .  A
C499        C504   1.387       .  A
C499        H505   1.084       .  S
C500        C501   1.397       .  A
C501        C502   1.387       .  A
C501        H506   1.075       .  S
C502        C503   1.401       .  A
C502        H507   1.083       .  S
C503        C504   1.406       .  A
C504        H508   1.083       .  S
C509        C510   1.405       .  A
C509        C514   1.389       .  A
C509        H515   1.084   1_556  S
C510        C511   1.411       .  A
C511        C512   1.387       .  A
C511        H516   1.084       .  S
C512        C513   1.405       .  A
C512        H517   1.082       .  S
C513        C514   1.411       .  A
C514        H518   1.080       .  S
C519        C520   1.399       .  A
C519        C524   1.378       .  A
C519        H525   1.082       .  S
C520        C521   1.414       .  A
C521        C522   1.392       .  A
C521        H526   1.077       .  S
C522        C523   1.399       .  A
C522        H527   1.083       .  S
C523        C524   1.413       .  A
C524        H528   1.083       .  S
C529        C530   1.414       .  A
C529        C534   1.385       .  A
C529        H535   1.079       .  S
C530        C531   1.407       .  A
C531        C532   1.390       .  A
C531        H536   1.079       .  S
C532        C533   1.409       .  A
C532        H537   1.083       .  S
C533        C534   1.399       .  A
C534        H538   1.084       .  S
C539        C540   1.404       .  A
C539        C544   1.380       .  A
C539        H545   1.081       .  S
C540        C541   1.413       .  A
C541        C542   1.380       .  A
C541        H546   1.079       .  S
C542        C543   1.394       .  A
C542        H547   1.084       .  S
C543        C544   1.404       .  A
C544        H548   1.084       .  S
C549        C550   1.397       .  A
C549        C554   1.403       .  A
C549        H555   1.081       .  S
C550        C551   1.419       .  A
C551        C552   1.382       .  A
C551        H556   1.083       .  S
C552        C553   1.384       .  A
C552        H557   1.084       .  S
C553        C554   1.416       .  A
C554        H558   1.084       .  S
C559        C560   1.418       .  A
C559        C564   1.388       .  A
C559        H565   1.084       .  S
C560        C561   1.399       .  A
C561        C562   1.406       .  A
C561        H566   1.080       .  S
C562        C563   1.415       .  A
C562        H567   1.082       .  S
C563        C564   1.388       .  A
C564        H568   1.084       .  S
C569        C570   1.418       .  A
C569        C574   1.392       .  A
C569        H575   1.078       .  S
C570        C571   1.406       .  A
C571        C572   1.398       .  A
C571        H576   1.082       .  S
C572        C573   1.405       .  A
C572        H577   1.084       .  S
C573        C574   1.394       .  A
C574        H578   1.084       .  S
C579        C580   1.413       .  A
C579        C584   1.394       .  A
C579        H585   1.078       .  S
C580        C581   1.398       .  A
C581        C582   1.376       .  A
C581        H586   1.082       .  S
C582        C583   1.412       .  A
C582        H587   1.083       .  S
C583        C584   1.402       .  A
C584        H588   1.083       .  S
C589        C590   1.407       .  A
C589        C594   1.390       .  A
C589        H595   1.079       .  S
C590        C591   1.416       .  A
C591        C592   1.387       .  A
C591        H596   1.079       .  S
C592        C593   1.399       .  A
C592        H597   1.084       .  S
C593        C594   1.409       .  A
C594        H598   1.084       .  S
C599        C600   1.399       .  A
C599        C604   1.388       .  A
C599        H605   1.079       .  S
C600        C601   1.418       .  A
C601        C602   1.377       .  A
C601        H606   1.078       .  S
C602        C603   1.385       .  A
C602        H607   1.084       .  S
C603        C604   1.407       .  A
C604        H608   1.080       .  S
C609        C610   1.412       .  A
C609        C614   1.383       .  A
C609        H615   1.080       .  S
C610        C611   1.402       .  A
C611        C612   1.388       .  A
C611        H616   1.082       .  S
C612        C613   1.415       .  A
C612        H617   1.083       .  S
C613        C614   1.402       .  A
C614        H618   1.084       .  S
C619        C620   1.402       .  A
C619        C624   1.383       .  A
C619        H625   1.082       .  S
C620        C621   1.414       .  A
C621        C622   1.381       .  A
C621        H626   1.079       .  S
C622        C623   1.394       .  A
C622        H627   1.084       .  S
C623        C624   1.406       .  A
C624        H628   1.084       .  S
C629        C630   1.397       .  A
C629        C634   1.403       .  A
C629        H635   1.082       .  S
C630        C631   1.419       .  A
C631        C632   1.381       .  A
C631        H636   1.083       .  S
C632        C633   1.384       .  A
C632        H637   1.084       .  S
C633        C634   1.416       .  A
C634        H638   1.083       .  S
