geometry optimzed in LAMMPS
_audit_creation_date              2020-12-01 
_audit_creation_method            'lammps2cif' 
_symmetry_space_group_name_H-M    'P1' 
_symmetry_Int_Tables_number       1 
_symmetry_cell_setting            triclinic 
loop_ 
_symmetry_equiv_pos_as_xyz 
  x,y,z 
_cell_length_a                    38.40883815 
_cell_length_b                    38.541118478300724 
_cell_length_c                    38.665346938277 
_cell_angle_alpha                 89.8664971899577 
_cell_angle_beta                  90.04019628100619 
_cell_angle_gamma                 89.90761807277988 
loop_ 
_atom_site_label 
_atom_site_type_symbol 
_atom_site_fract_x 
_atom_site_fract_y 
_atom_site_fract_z 
_atom_site_charge 
C1          C  0.34100225  0.22018289  0.52421025     0.02500
C2          C  0.33576574  0.23586131  0.49221905    -0.13700
C3          C  0.34975935  0.22134603  0.46220301     0.00000
C4          C  0.36995948  0.19084906  0.46519509    -0.12200
C5          C  0.37325222  0.17393293  0.49722514     0.02500
C6          C  0.36117331  0.19021901  0.52704074    -0.11600
H7          H  0.31656603  0.25639736  0.49044251     0.08100
H8          H  0.37978602  0.17825191  0.44218865     0.05600
H9          H  0.36301884  0.17718947  0.55187043     0.05400
C10         C  0.14655808  0.40697667  0.46017016     0.02500
C11         C  0.16238132  0.39581553  0.49120036    -0.13700
C12         C  0.14794185  0.40378316  0.52362737     0.00000
C13         C  0.11694903  0.42369343  0.52501436    -0.12200
C14         C  0.09993967  0.43527632  0.49457136     0.02500
C15         C  0.11509213  0.42647827  0.46222567    -0.11600
H16         H  0.18517893  0.37926077  0.49013346     0.08100
H17         H  0.10562199  0.42936978  0.55002265     0.05600
H18         H  0.10230868  0.43455659  0.43855115     0.05400
C19         C  0.13220169  0.52025344  0.36607437     0.02500
C20         C  0.10447901  0.52448295  0.38887636    -0.13700
C21         C  0.08513050  0.55535323  0.38830871     0.00000
C22         C  0.09750642  0.58385128  0.36944933    -0.12200
C23         C  0.12786828  0.58020594  0.34969013     0.02500
C24         C  0.14515733  0.54866609  0.34811985    -0.11600
H25         H  0.09468788  0.50182657  0.40239229     0.08100
H26         H  0.08298781  0.60797943  0.36875230     0.05600
H27         H  0.16669545  0.54553360  0.33023142     0.05400
C28         C  0.31738878  0.52128442  0.17223260     0.02500
C29         C  0.33846453  0.52075366  0.14213053    -0.13700
C30         C  0.34993898  0.55193511  0.12617253     0.00000
C31         C  0.34070661  0.58389792  0.14218406    -0.12200
C32         C  0.31990522  0.58523188  0.17272183     0.02500
C33         C  0.30792011  0.55352721  0.18662876    -0.11600
H34         H  0.34488933  0.49600494  0.13052364     0.08100
H35         H  0.34948565  0.60796156  0.13062494     0.05600
H36         H  0.29010307  0.55379572  0.20831044     0.05400
C37         C  0.48369006  0.21628603  0.34896861     0.02500
C38         C  0.48433394  0.18539366  0.36801914    -0.13700
C39         C  0.45348081  0.16949707  0.37927621     0.00000
C40         C  0.42138537  0.18664361  0.37263327    -0.12200
C41         C  0.42072195  0.21894787  0.35462431     0.02500
C42         C  0.45221803  0.23357346  0.34359604    -0.11600
H43         H  0.50915828  0.17250686  0.37180171     0.08100
H44         H  0.39714108  0.17444517  0.38006192     0.05600
H45         H  0.45192879  0.25688781  0.32782708     0.05400
C46         C  0.44982229  0.42116960  0.17291104     0.02500
C47         C  0.48033173  0.40839037  0.18814097    -0.13700
C48         C  0.51314803  0.41818151  0.17570152     0.00000
C49         C  0.51559198  0.43887630  0.14550444    -0.12200
C50         C  0.48496119  0.45133107  0.12951130     0.02500
C51         C  0.45278219  0.44483964  0.14548259    -0.11600
H52         H  0.47886773  0.38849556  0.20787890     0.08100
H53         H  0.54048407  0.44332020  0.13371975     0.05600
H54         H  0.42914864  0.45524421  0.13409229     0.05400
C55         C  0.11570599  0.37629894  0.95895051     0.02500
C56         C  0.12599403  0.36017592  0.99025211    -0.13700
C57         C  0.12211944  0.37656501  0.02273392     0.00000
C58         C  0.10575254  0.40988163  0.02305199    -0.12200
C59         C  0.09240027  0.42585259  0.99290929     0.02500
C60         C  0.09824237  0.40894521  0.96087713    -0.11600
H61         H  0.13767749  0.33490338  0.98899928     0.08100
H62         H  0.10368663  0.42431562  0.04685950     0.05600
H63         H  0.08943017  0.42133328  0.93726381     0.05400
C64         C  0.30663621  0.18651816  0.96166007     0.02500
C65         C  0.28991070  0.19772695  0.99161190    -0.13700
C66         C  0.30567772  0.19354953  0.02369807     0.00000
C67         C  0.33692335  0.17504763  0.02670881    -0.12200
C68         C  0.35396648  0.16320845  0.99697345     0.02500
C69         C  0.33825359  0.16823461  0.96449658    -0.11600
H70         H  0.26751047  0.21480732  0.98960575     0.08100
H71         H  0.34963918  0.17335688  0.05169830     0.05600
H72         H  0.35211645  0.16102120  0.94120678     0.05400
O73         O  0.11141837  0.33920522  0.74227358    -0.88800
C74         C  0.25129207  0.25281567  0.63503042     1.11200
O75         O  0.19068840  0.33471377  0.74070730    -1.36600
O76         O  0.18226554  0.22160001  0.67242893    -0.90300
O77         O  0.13605745  0.37623710  0.77934371    -0.91000
O78         O  0.17209783  0.29444179  0.81352429    -0.79800
O79         O  0.14778875  0.28423240  0.70287310    -1.01900
C80         C  0.24361639  0.22418155  0.78642006     1.21200
O81         O  0.24860341  0.30760640  0.77097852    -1.36800
Mn82       Mn  0.24309390  0.32922029  0.71925014     1.82100
O83         O  0.21244103  0.23503999  0.78861719    -0.78900
O84         O  0.21694158  0.19934117  0.71347501    -0.88300
C85         C  0.30907330  0.28877530  0.69873552     1.12300
C86         C  0.19262583  0.19663003  0.69140269     1.07100
O87         O  0.26604775  0.37885057  0.73238242    -0.79800
O88         O  0.22128114  0.27761217  0.71308390    -1.33500
O89         O  0.23964223  0.37703664  0.78024752    -0.99000
C90         C  0.27380994  0.27839740  0.85060142     1.05800
Mn91       Mn  0.25653901  0.23599453  0.71415705     1.48600
O92         O  0.24834892  0.29947276  0.84974597    -0.88200
Mn93       Mn  0.18928684  0.37614314  0.77572831     1.49600
O94         O  0.15157116  0.38935686  0.69802553    -0.92100
C95         C  0.13355543  0.26372597  0.72221748     1.19000
C96         C  0.16892336  0.41469746  0.71017599     1.11000
Mn97       Mn  0.19781870  0.28361474  0.76386324     1.81000
O98         O  0.29609024  0.26960699  0.72064636    -0.97300
Mn99       Mn  0.14959494  0.33529857  0.70443735     1.49300
C100        C  0.11048179  0.35901536  0.76832980     1.07500
Mn101      Mn  0.29340353  0.27730754  0.77234825     1.49900
C102        C  0.32493419  0.34322845  0.79857261     1.10400
O103        O  0.19567309  0.34302901  0.81293400    -1.03100
O104        O  0.26038897  0.23423719  0.66054050    -0.92700
C105        C  0.17517225  0.32409047  0.82723921     1.21700
O106        O  0.26177461  0.23811457  0.76494155    -1.03400
O107        O  0.22600331  0.27369856  0.63545089    -0.90800
O108        O  0.32662622  0.32065940  0.77459663    -0.90500
O109        O  0.18778049  0.41263383  0.73694980    -0.90500
Mn110      Mn  0.18627328  0.27589417  0.67107310     1.47900
O111        O  0.29421533  0.31807208  0.69505833    -0.79000
C112        C  0.26153383  0.39116250  0.76243599     1.14800
O113        O  0.14817613  0.25904325  0.75133632    -0.77700
O114        O  0.23198579  0.35189006  0.66887303    -0.77300
Mn115      Mn  0.24590646  0.34039686  0.81397524     1.51100
O116        O  0.29407743  0.27416009  0.82542940    -0.89700
O117        O  0.18359920  0.32632848  0.66845520    -0.97200
O118        O  0.29848872  0.34688518  0.81740082    -0.92200
C119        C  0.20334336  0.34615388  0.65371029     1.12600
C120        C  0.10118043  0.02412530  0.32897403     0.02500
C121        C  0.10686761  0.05544251  0.31199527    -0.13700
C122        C  0.09817182  0.08674266  0.32790804     0.00000
C123        C  0.08017912  0.08604858  0.35969514    -0.12200
C124        C  0.07395908  0.05438928  0.37663951     0.02500
C125        C  0.08357407  0.02339137  0.36049544    -0.11600
H126        H  0.12396605  0.05552920  0.28967360     0.08100
H127        H  0.07501491  0.11015280  0.37305713     0.05600
H128        H  0.08131604  0.99892210  0.37420857     0.05400
C129        C  0.29349612  0.02501587  0.14367237     0.02500
C130        C  0.32530300  0.02433522  0.12498029    -0.13700
C131        C  0.34199708  0.05517777  0.11394324     0.00000
C132        C  0.32538602  0.08724131  0.12127413    -0.12200
C133        C  0.29338485  0.08892707  0.13980282     0.02500
C134        C  0.27823346  0.05748621  0.15111641    -0.11600
H135        H  0.33765215  0.99955964  0.11999327     0.08100
H136        H  0.33772102  0.11111298  0.11302622     0.05600
H137        H  0.25547230  0.05831994  0.16759918     0.05400
O138        O  0.25657925  0.81392701  0.14081279    -0.88800
C139        C  0.17243788  0.69648747  0.27302124     1.11200
O140        O  0.25400314  0.80804986  0.21879762    -1.36600
O141        O  0.14140323  0.73941528  0.20496783    -0.90300
O142        O  0.29281968  0.85226565  0.16504777    -0.91000
O143        O  0.21365737  0.88174334  0.20455250    -0.79800
O144        O  0.20374280  0.77327804  0.17733626    -1.01900
C145        C  0.13743961  0.84808558  0.26654606     1.21200
O146        O  0.22555973  0.83557853  0.27733659    -1.36800
Mn147      Mn  0.24773796  0.78353285  0.26940481     1.82100
O148        O  0.15214874  0.85335716  0.23779541    -0.78900
O149        O  0.11579140  0.77278657  0.24480779    -0.88300
C150        C  0.20614804  0.76447998  0.33244835     1.12300
C151        C  0.11514370  0.75464023  0.21756453     1.07100
O152        O  0.29881875  0.79389433  0.29167594    -0.79800
O153        O  0.19586377  0.77815298  0.24691089    -1.33500
O154        O  0.29811638  0.84342738  0.26847746    -0.99000
C155        C  0.19561346  0.91467072  0.30329916     1.05800
Mn156      Mn  0.15455190  0.77663659  0.28207508     1.48600
O157        O  0.22366762  0.91454514  0.28601188    -0.88200
Mn158      Mn  0.29529665  0.84410766  0.21822234     1.49600
O159        O  0.30717095  0.76755723  0.17707134    -0.92100
C160        C  0.18232757  0.79090450  0.16280976     1.19000
C161        C  0.33282993  0.77879292  0.19420229     1.11000
Mn162      Mn  0.20232557  0.83057861  0.22592179     1.81000
O163        O  0.18882972  0.78548592  0.31720949    -0.97300
Mn164      Mn  0.25388581  0.77405615  0.17666560     1.49300
C165        C  0.27536399  0.84083292  0.13967040     1.07500
Mn166      Mn  0.18973200  0.83554119  0.31850670     1.49900
C167        C  0.25651977  0.85650941  0.35812029     1.10400
O168        O  0.26235980  0.88072772  0.22917317    -1.03100
O169        O  0.15757241  0.72261411  0.28658003    -0.92700
C170        C  0.24279701  0.89616861  0.20987602     1.21700
O171        O  0.15176693  0.82744281  0.28575870    -1.03400
O172        O  0.19044205  0.69782430  0.24571262    -0.90800
O173        O  0.22854254  0.83900595  0.35631794    -0.90500
O174        O  0.33245847  0.80591419  0.21251804    -0.90500
Mn175      Mn  0.19490279  0.73758574  0.21041557     1.47900
O176        O  0.23591605  0.75887925  0.31945296    -0.79000
C177        C  0.31333852  0.82309809  0.28730709     1.14800
O178        O  0.17752418  0.82049135  0.17592527    -0.77700
O179        O  0.27013518  0.73265617  0.25611861    -0.77300
Mn180      Mn  0.26183684  0.87669882  0.27955231     1.51100
O181        O  0.18310886  0.88850699  0.31861384    -0.89700
O182        O  0.24543396  0.73518155  0.20779929    -0.97200
O183        O  0.26959210  0.87264439  0.33264823    -0.92200
C184        C  0.26522119  0.71930425  0.22648284     1.12600
C185        C  0.95404386  0.19753348  0.33206410     0.02500
C186        C  0.98559497  0.20119432  0.31436962    -0.13700
C187        C  0.01653757  0.18696806  0.32765050     0.00000
C188        C  0.01536807  0.17004809  0.36040701    -0.12200
C189        C  0.98372953  0.16699571  0.37887288     0.02500
C190        C  0.95322171  0.17967739  0.36361195    -0.11600
H191        H  0.98644335  0.21761647  0.29161925     0.08100
H192        H  0.03917826  0.16064482  0.37209585     0.05600
H193        H  0.92870625  0.17771933  0.37735785     0.05400
C194        C  0.92272982  0.37527037  0.13009570     0.02500
C195        C  0.92509181  0.40479629  0.10848982    -0.13700
C196        C  0.95715501  0.42207233  0.10432127     0.00000
C197        C  0.98695337  0.40830844  0.12034295    -0.12200
C198        C  0.98461134  0.37934579  0.14211387     0.02500
C199        C  0.95282434  0.36242709  0.14612499    -0.11600
H200        H  0.90173592  0.41538838  0.09678297     0.08100
H201        H  0.01172984  0.42155118  0.11807198     0.05600
H202        H  0.95093595  0.34104923  0.16431906     0.05400
O203        O  0.80434221  0.26344093  0.31592857    -0.88800
C204        C  0.60909801  0.25218948  0.27723963     1.11200
O205        O  0.74955892  0.30458140  0.27519330    -1.36600
O206        O  0.68343612  0.19565734  0.24853395    -0.90300
O207        O  0.82901023  0.29918778  0.27742578    -0.91000
O208        O  0.79054621  0.29019399  0.20076336    -0.79800
O209        O  0.74034343  0.23336264  0.28554784    -1.01900
C210        C  0.70227086  0.26149188  0.16196227     1.21200
O211        O  0.71980202  0.33244565  0.21654014    -1.36800
Mn212      Mn  0.69797914  0.32682110  0.26798976     1.82100
O213        O  0.73096327  0.25704603  0.17676178    -0.78900
O214        O  0.65074568  0.21915837  0.20656218    -0.88300
C215        C  0.63303328  0.34413532  0.22873731     1.12300
C216        C  0.66526512  0.19331542  0.22121779     1.07100
O217        O  0.70964994  0.37599310  0.28975518    -0.79800
O218        O  0.69015071  0.27507864  0.24728697    -1.33500
O219        O  0.75878231  0.37619729  0.26506883    -0.99000
C220        C  0.74892299  0.35541322  0.13541704     1.05800
Mn221      Mn  0.64872179  0.27327779  0.21148318     1.48600
O222        O  0.76126621  0.37187969  0.16093524    -0.88200
Mn223      Mn  0.79197599  0.33883609  0.27377710     1.49600
O224        O  0.75711673  0.31001483  0.35424129    -0.92100
C225        C  0.76089125  0.21913725  0.26657264     1.19000
C226        C  0.77850267  0.33524727  0.35452042     1.11000
Mn227      Mn  0.74163141  0.28101849  0.22492568     1.81000
O228        O  0.64654396  0.32402356  0.20859503    -0.97300
Mn229      Mn  0.75066937  0.27067117  0.31754289     1.49300
C230        C  0.83021610  0.27380276  0.29839073     1.07500
Mn231      Mn  0.68401524  0.33245902  0.17536275     1.49900
C232        C  0.69143634  0.41292336  0.18953087     1.10400
O233        O  0.79172724  0.33966021  0.22339303    -1.03100
O234        O  0.61024248  0.26939843  0.24931103    -0.92700
C235        C  0.80449424  0.31949490  0.20293881     1.21700
O236        O  0.68233420  0.28199607  0.17513076    -1.03400
O237        O  0.63538471  0.23755899  0.29082012    -0.90800
O238        O  0.67888181  0.38608294  0.17539575    -0.90500
O239        O  0.79341970  0.34588966  0.32725464    -0.90500
Mn240      Mn  0.68941153  0.23519886  0.28436605     1.47900
O241        O  0.64862225  0.34965271  0.25684899    -0.79000
C242        C  0.73888920  0.38992777  0.28530259     1.14800
O243        O  0.76445201  0.23194931  0.23686716    -0.77700
O244        O  0.67476307  0.31797772  0.31790432    -0.77300
Mn245      Mn  0.75578584  0.37363449  0.21447533     1.51100
O246        O  0.72242752  0.33586394  0.13726544    -0.89700
O247        O  0.69999721  0.26988098  0.31885287    -0.97200
O248        O  0.71789020  0.41188907  0.20925594    -0.92200
C249        C  0.67945880  0.28920357  0.33252476     1.12600
C250        C  0.64647996  0.18869277  0.98170075     0.02500
C251        C  0.66284850  0.19729037  0.01259266    -0.13700
C252        C  0.64843394  0.18688379  0.04412265     0.00000
C253        C  0.61793772  0.16638584  0.04442069    -0.12200
C254        C  0.60183698  0.15704238  0.01313615     0.02500
C255        C  0.61738119  0.16706497  0.98189676    -0.11600
H256        H  0.68445616  0.21538367  0.01224594     0.08100
H257        H  0.60569242  0.15979738  0.06879203     0.05600
H258        H  0.60471663  0.16147260  0.95747276     0.05400
C259        C  0.82253038  0.38987748  0.01148241     0.02500
C260        C  0.83944708  0.42187128  0.01144045    -0.13700
C261        C  0.85141962  0.43705773  0.98063099     0.00000
C262        C  0.84580152  0.41908063  0.94905167    -0.12200
C263        C  0.82950832  0.38592759  0.94923853     0.02500
C264        C  0.81852508  0.37162144  0.98070692    -0.11600
H265        H  0.84182304  0.43560731  0.03575966     0.08100
H266        H  0.85306740  0.43097649  0.92470433     0.05600
H267        H  0.80385857  0.34758342  0.98081992     0.05400
C268        C  0.93750987  0.20195720  0.67100596     0.02500
C269        C  0.93829022  0.18316780  0.63942201    -0.13700
C270        C  0.97019707  0.17296962  0.62385301     0.00000
C271        C  0.00154802  0.18218457  0.64080068    -0.12200
C272        C  0.00179634  0.20137957  0.67214884     0.02500
C273        C  0.96943732  0.21081735  0.68691848    -0.11600
H274        H  0.91392180  0.17691285  0.62678881     0.08100
H275        H  0.02613858  0.17501992  0.62910860     0.05600
H276        H  0.96901201  0.22675321  0.70994828     0.05400
C277        C  0.00348711  0.38970773  0.86280093     0.02500
C278        C  0.00395605  0.42072451  0.88135905    -0.13700
C279        C  0.97264526  0.43638012  0.89141434     0.00000
C280        C  0.94102711  0.41961771  0.88457154    -0.12200
C281        C  0.94068124  0.38973541  0.86392973     0.02500
C282        C  0.97202324  0.37368991  0.85530359    -0.11600
H283        H  0.02845793  0.43427718  0.88458739     0.08100
H284        H  0.91665189  0.43188311  0.89162311     0.05600
H285        H  0.97202841  0.35183566  0.83765314     0.05400
O286        O  0.80047204  0.37044703  0.78657052    -0.88800
C287        C  0.60879393  0.32411473  0.80355535     1.11200
O288        O  0.74686686  0.32764724  0.74885225    -1.36600
O289        O  0.68643223  0.29280578  0.85627418    -0.90300
O290        O  0.82617949  0.33086490  0.75290314    -0.91000
O291        O  0.79235503  0.25320146  0.75802071    -0.79800
O292        O  0.74009841  0.33611017  0.82086260    -1.01900
C293        C  0.70303638  0.21039676  0.78923738     1.21200
O294        O  0.71822690  0.26978231  0.71983226    -1.36800
Mn295      Mn  0.69488168  0.32096100  0.72733237     1.82100
O296        O  0.73203775  0.22526790  0.79346393    -0.78900
O297        O  0.65120109  0.25334481  0.83242402    -0.88300
C298        C  0.63091521  0.27924788  0.70878674     1.12300
C299        C  0.66850597  0.26535137  0.85763256     1.07100
O300        O  0.70575022  0.34594444  0.67775386    -0.79800
O301        O  0.68944730  0.29718918  0.77816661    -1.33500
O302        O  0.75439935  0.32108749  0.67817180    -0.99000
C303        C  0.75002609  0.19167812  0.69341930     1.05800
Mn304      Mn  0.64857143  0.26031923  0.77905051     1.48600
O305        O  0.75901662  0.21807981  0.67623820    -0.88200
Mn306      Mn  0.78884517  0.32830366  0.71402447     1.49600
O307        O  0.74816903  0.40621351  0.74285716    -0.92100
C308        C  0.76110735  0.31646011  0.83499946     1.19000
C309        C  0.77043406  0.40709279  0.71888473     1.11000
Mn310      Mn  0.74183427  0.27588118  0.77078679     1.81000
O311        O  0.64550447  0.25898314  0.72838911    -0.97300
Mn312      Mn  0.74704074  0.37014549  0.78256761     1.49300
C313        C  0.82664753  0.35272215  0.77737374     1.07500
Mn314      Mn  0.68399522  0.22708485  0.71913168     1.49900
C315        C  0.68700023  0.24629775  0.64016345     1.10400
O316        O  0.79072680  0.27811996  0.70975175    -1.03100
O317        O  0.60983794  0.29762251  0.78423494    -0.92700
C318        C  0.80607090  0.25794458  0.72860269     1.21700
O319        O  0.68286118  0.22459894  0.76945570    -1.03400
O320        O  0.63479760  0.33646854  0.81934663    -0.90800
O321        O  0.67710107  0.22868357  0.66603583    -0.90500
O322        O  0.78892224  0.38151024  0.71006200    -0.90500
Mn323      Mn  0.68808527  0.33217293  0.81978678     1.47900
O324        O  0.64498835  0.30868625  0.70495387    -0.79000
C325        C  0.73562230  0.34230294  0.66442020     1.14800
O326        O  0.76636216  0.28748524  0.82045171    -0.77700
O327        O  0.67035654  0.37113629  0.73987258    -0.77300
Mn328      Mn  0.75245118  0.27080288  0.67747017     1.51100
O329        O  0.72465423  0.19124057  0.71445566    -0.89700
O330        O  0.69626669  0.37079068  0.78751011    -0.97200
O331        O  0.71210652  0.26774063  0.64131088    -0.92200
C332        C  0.67605652  0.38592504  0.76862200     1.12600
C333        C  0.12688418  0.71115166  0.98711428     0.02500
C334        C  0.10393945  0.68298099  0.98648537    -0.13700
C335        C  0.09110513  0.66814501  0.01712210     0.00000
C336        C  0.09737713  0.68553351  0.04877109    -0.12200
C337        C  0.11745602  0.71648694  0.04921037     0.02500
C338        C  0.13262820  0.72827509  0.01844719    -0.11600
H339        H  0.09749130  0.67143835  0.96182443     0.08100
H340        H  0.08746489  0.67487989  0.07275797     0.05600
H341        H  0.15051779  0.74997620  0.01939882     0.05400
C342        C  0.29993715  0.91499830  0.01443354     0.02500
C343        C  0.28328451  0.90793165  0.98321310    -0.13700
C344        C  0.29689250  0.92091474  0.95219395     0.00000
C345        C  0.32719695  0.94156858  0.95274621    -0.12200
C346        C  0.34357289  0.94906126  0.98439535     0.02500
C347        C  0.32856295  0.93712253  0.01512464    -0.11600
H348        H  0.26177746  0.88973359  0.98270259     0.08100
H349        H  0.33893409  0.94987965  0.92864023     0.05600
H350        H  0.34116623  0.94196667  0.03974491     0.05400
C351        C  0.10853533  0.00873147  0.66969411     0.02500
C352        C  0.08716987  0.00920113  0.63995286    -0.13700
C353        C  0.08106265  0.04057314  0.62223990     0.00000
C354        C  0.09570182  0.07124124  0.63518386    -0.12200
C355        C  0.11865345  0.07056427  0.66326544     0.02500
C356        C  0.12398188  0.03952991  0.68122805    -0.11600
H357        H  0.07687821  0.98509903  0.62985924     0.08100
H358        H  0.09138728  0.09565559  0.62187839     0.05600
H359        H  0.14239851  0.03876079  0.70249210     0.05400
C360        C  0.31261576  0.04440730  0.84400483     0.02500
C361        C  0.29524327  0.07588145  0.83949641    -0.13700
C362        C  0.30691287  0.10611866  0.85581132     0.00000
C363        C  0.33831424  0.10467118  0.87541910    -0.12200
C364        C  0.35606785  0.07270521  0.88024453     0.02500
C365        C  0.34152975  0.04267298  0.86595933    -0.11600
H366        H  0.27370664  0.07723515  0.82141518     0.08100
H367        H  0.34915803  0.12826957  0.88602263     0.05600
H368        H  0.35403438  0.01778019  0.87006872     0.05400
O369        O  0.32919645  0.84263927  0.74265760    -0.88800
C370        C  0.19746859  0.75286336  0.86185285     1.11200
O371        O  0.24999941  0.83689216  0.74875891    -1.36600
O372        O  0.26751572  0.72558116  0.82153758    -0.90300
O373        O  0.30255582  0.87878813  0.70569163    -0.91000
O374        O  0.26520910  0.79555740  0.67859834    -0.79800
O375        O  0.29523275  0.78779946  0.78590609    -1.01900
C376        C  0.20558494  0.72006217  0.71011740     1.21200
O377        O  0.19132832  0.80597707  0.72178201    -1.36800
Mn378      Mn  0.19929568  0.82909161  0.77229612     1.82100
O379        O  0.23357043  0.73619259  0.70553709    -0.78900
O380        O  0.23034871  0.69932316  0.78569016    -0.88300
C381        C  0.13899366  0.78751074  0.79534049     1.12300
C382        C  0.25648315  0.69889754  0.80577022     1.07100
O383        O  0.17386829  0.87748276  0.76128898    -0.79800
O384        O  0.22325699  0.77832053  0.77987076    -1.33500
O385        O  0.19790491  0.87681345  0.71268944    -0.99000
C386        C  0.16299700  0.77614265  0.64266614     1.05800
Mn387      Mn  0.18990872  0.73545421  0.78258313     1.48600
O388        O  0.18435958  0.80131744  0.64297466    -0.88200
Mn389      Mn  0.24860839  0.87789029  0.71304232     1.49600
O390        O  0.29133963  0.89243885  0.78714684    -0.92100
C391        C  0.30769081  0.76667711  0.76608555     1.19000
C392        C  0.27408331  0.91816984  0.77572283     1.11000
Mn393      Mn  0.24336287  0.78531235  0.72792223     1.81000
O394        O  0.15197409  0.76823454  0.77413832    -0.97300
Mn395      Mn  0.29273884  0.83853947  0.78249480     1.49300
C396        C  0.32942077  0.86288764  0.71664704     1.07500
Mn397      Mn  0.14968918  0.77093356  0.72324168     1.49900
C398        C  0.10904095  0.83329780  0.69821702     1.10400
O399        O  0.23985779  0.84393616  0.67704410    -1.03100
O400        O  0.18612108  0.73637036  0.83593850    -0.92700
C401        C  0.26091802  0.82436230  0.66408544     1.21700
O402        O  0.18402321  0.73195055  0.73071864    -1.03400
O403        O  0.22217931  0.77472384  0.85992479    -0.90800
O404        O  0.11166196  0.80952865  0.72086897    -0.90500
O405        O  0.25253258  0.91615324  0.75089804    -0.90500
Mn406      Mn  0.25970295  0.77924958  0.82063555     1.47900
O407        O  0.15153615  0.81746000  0.79747598    -0.79000
C408        C  0.17714245  0.89067589  0.73173406     1.14800
O409        O  0.29293565  0.76315529  0.73738937    -0.77700
O410        O  0.21069264  0.85342463  0.82021961    -0.77300
Mn411      Mn  0.18899045  0.84033430  0.67966785     1.51100
O412        O  0.14772823  0.76550166  0.66973274    -0.89700
O413        O  0.26010815  0.82986549  0.81990536    -0.97200
O414        O  0.13474508  0.84458780  0.68089223    -0.92200
C415        C  0.24030052  0.85022203  0.83356050     1.12600
C416        C  0.94199243  0.71872873  0.12772772     0.02500
C417        C  0.97335783  0.73515221  0.13480697    -0.13700
C418        C  0.00467044  0.71813345  0.12832805     0.00000
C419        C  0.00454724  0.68558738  0.11201850    -0.12200
C420        C  0.97285493  0.67009858  0.10266491     0.02500
C421        C  0.94167360  0.68802862  0.10858225    -0.11600
H422        H  0.97336679  0.75793922  0.15126477     0.08100
H423        H  0.02868640  0.67117647  0.10970511     0.05600
H424        H  0.91692273  0.67545314  0.10371888     0.05400
C425        C  0.94320591  0.90788823  0.32019150     0.02500
C426        C  0.97592467  0.89884725  0.30634659    -0.13700
C427        C  0.00740919  0.90923760  0.32225461     0.00000
C428        C  0.00515552  0.93040666  0.35239911    -0.12200
C429        C  0.97268409  0.93866978  0.36803283     0.02500
C430        C  0.94200998  0.92747809  0.35116853    -0.11600
H431        H  0.97674171  0.88187367  0.28407447     0.08100
H432        H  0.02877312  0.94011707  0.36411745     0.05600
H433        H  0.91692998  0.93308016  0.36270956     0.05400
C434        C  0.82893023  0.04107647  0.32542705     0.02500
C435        C  0.84313789  0.04185643  0.35892634    -0.13700
C436        C  0.85836216  0.07162194  0.37260361     0.00000
C437        C  0.85590977  0.10277252  0.35381962    -0.12200
C438        C  0.83968021  0.10322359  0.32091670     0.02500
C439        C  0.82874727  0.07180085  0.30605819    -0.11600
H440        H  0.84174538  0.01901931  0.37519541     0.08100
H441        H  0.86488762  0.12677268  0.36529707     0.05600
H442        H  0.81790993  0.07190299  0.28034472     0.05400
C443        C  0.63655224  0.00268021  0.14543494     0.02500
C444        C  0.64930037  0.03333795  0.16001079    -0.13700
C445        C  0.63085495  0.06427311  0.15680563     0.00000
C446        C  0.59958600  0.06530145  0.13831251    -0.12200
C447        C  0.58557661  0.03523678  0.12341121     0.02500
C448        C  0.60414448  0.00353492  0.12743449    -0.11600
H449        H  0.67288739  0.03286052  0.17544662     0.08100
H450        H  0.58579463  0.08978641  0.13630620     0.05600
H451        H  0.59328560  0.97968575  0.11739404     0.05400
O452        O  0.64043472  0.76772556  0.18447609    -0.88800
C453        C  0.83171837  0.74658133  0.22105979     1.11200
O454        O  0.69539613  0.80302078  0.22806085    -1.36600
O455        O  0.75397808  0.69303151  0.25576314    -0.90300
O456        O  0.61565610  0.79575764  0.22826594    -0.91000
O457        O  0.65382608  0.78938239  0.30449427    -0.79800
O458        O  0.70165721  0.73425566  0.21653873    -1.01900
C459        C  0.74644747  0.75902131  0.34191360     1.21200
O460        O  0.72732694  0.82974796  0.28525474    -1.36800
Mn461      Mn  0.74765902  0.82452931  0.23270950     1.82100
O462        O  0.71690307  0.75495046  0.32778345    -0.78900
O463        O  0.79314957  0.71497778  0.29235702    -0.88300
C464        C  0.81460096  0.84050046  0.27075260     1.12300
C465        C  0.77433159  0.69025676  0.28132005     1.07100
O466        O  0.73388979  0.87465621  0.21057900    -0.79800
O467        O  0.75430776  0.77237191  0.25411541    -1.33500
O468        O  0.68648702  0.87277049  0.23791940    -0.99000
C469        C  0.70319503  0.85383740  0.36627048     1.05800
Mn470      Mn  0.79706287  0.76928188  0.28780426     1.48600
O471        O  0.68929431  0.86970690  0.34113697    -0.88200
Mn472      Mn  0.65246219  0.83620976  0.23119362     1.49600
O473        O  0.68975740  0.81451289  0.15015369    -0.92100
C474        C  0.68056142  0.71963249  0.23471146     1.19000
C475        C  0.66687828  0.83834754  0.15212872     1.11000
Mn476      Mn  0.70361011  0.77886246  0.27857627     1.81000
O477        O  0.80048201  0.81985436  0.28991167    -0.97300
Mn478      Mn  0.69317589  0.77217110  0.18412242     1.49300
C479        C  0.61479574  0.77378901  0.20373473     1.07500
Mn480      Mn  0.76564884  0.82967415  0.32459879     1.49900
C481        C  0.75919831  0.90996659  0.30671543     1.10400
O482        O  0.65454064  0.83799772  0.28111718    -1.03100
O483        O  0.83216453  0.76602850  0.24731130    -0.92700
C484        C  0.63989140  0.81892384  0.30121529     1.21700
O485        O  0.76660244  0.77857817  0.32728996    -1.03400
O486        O  0.80567916  0.72880694  0.21183975    -0.90800
O487        O  0.77242051  0.88346203  0.32133455    -0.90500
O488        O  0.64886738  0.84349562  0.17882741    -0.90500
Mn489      Mn  0.75236387  0.73124366  0.21846823     1.47900
O490        O  0.79867968  0.84694931  0.24275788    -0.79000
C491        C  0.70375044  0.88710336  0.21595457     1.14800
O492        O  0.67840557  0.73023482  0.26558206    -0.77700
O493        O  0.77065818  0.81410921  0.18128641    -0.77300
Mn494      Mn  0.69183191  0.87127110  0.28804275     1.51100
O495        O  0.73003059  0.83494738  0.36416009    -0.89700
O496        O  0.74478516  0.76608340  0.18089853    -0.97200
O497        O  0.73050558  0.90892665  0.29033758    -0.92200
C498        C  0.76613678  0.78496509  0.16676484     1.12600
C499        C  0.63876165  0.92557749  0.03707609     0.02500
C500        C  0.60839271  0.94569938  0.03283647    -0.13700
C501        C  0.59023330  0.94540217  0.00129090     0.00000
C502        C  0.60436881  0.92789165  0.97297920    -0.12200
C503        C  0.63512538  0.90898230  0.97696695     0.02500
C504        C  0.65235782  0.90824655  0.00847204    -0.11600
H505        H  0.59698593  0.95850463  0.05502479     0.08100
H506        H  0.59014379  0.92644276  0.94879340     0.05600
H507        H  0.67369631  0.89007239  0.01155574     0.05400
C508        C  0.82227031  0.72730280  0.97394078     0.02500
C509        C  0.81444022  0.74267421  0.00605346    -0.13700
C510        C  0.82510921  0.72733268  0.03756567     0.00000
C511        C  0.84361147  0.69521597  0.03628311    -0.12200
C512        C  0.85249379  0.67937489  0.00427060     0.02500
C513        C  0.84205556  0.69631320  0.97347870    -0.11600
H514        H  0.79845354  0.76585421  0.00654197     0.08100
H515        H  0.85103022  0.68260313  0.06024156     0.05600
H516        H  0.84830313  0.68472028  0.94874381     0.05400
C517        C  0.84329308  0.07983531  0.66759820     0.02500
C518        C  0.86351724  0.07975500  0.63751544    -0.13700
C519        C  0.86803753  0.04911029  0.61873007     0.00000
C520        C  0.85693465  0.01751661  0.63319663    -0.12200
C521        C  0.83872405  0.01717794  0.66487166     0.02500
C522        C  0.83230266  0.04847249  0.68177235    -0.11600
H523        H  0.87091177  0.10440572  0.62613751     0.08100
H524        H  0.85948306  0.99377819  0.61847257     0.05600
H525        H  0.81381769  0.04888017  0.70294266     0.05400
C526        C  0.64751620  0.08247729  0.85246976     0.02500
C527        C  0.61778739  0.08261247  0.87409342    -0.13700
C528        C  0.60077188  0.05165155  0.88377669     0.00000
C529        C  0.61656530  0.01968169  0.87446896    -0.12200
C530        C  0.64793546  0.01836158  0.85478305     0.02500
C531        C  0.66226995  0.05014887  0.84323158    -0.11600
H532        H  0.60707192  0.10717901  0.88247666     0.08100
H533        H  0.60429130  0.99570615  0.88247941     0.05600
H534        H  0.68419880  0.04975829  0.82567300     0.05400
C535        C  0.98129774  0.89842920  0.65541223     0.02500
C536        C  0.94948263  0.89371239  0.67231223    -0.13700
C537        C  0.91878981  0.90907221  0.65972313     0.00000
C538        C  0.92052414  0.92911944  0.62881701    -0.12200
C539        C  0.95268807  0.93383000  0.61142668     0.02500
C540        C  0.98290269  0.91994883  0.62629882    -0.11600
H541        H  0.94834186  0.87660156  0.69457415     0.08100
H542        H  0.89710408  0.94059442  0.61822031     0.05600
H543        H  0.00791949  0.92434101  0.61413203     0.05400
C544        C  0.96041825  0.72577258  0.85510930     0.02500
C545        C  0.95783874  0.69536907  0.87486626    -0.13700
C546        C  0.98730912  0.68090013  0.89081328     0.00000
C547        C  0.01964502  0.69771005  0.88713309    -0.12200
C548        C  0.02247412  0.72780826  0.86650889     0.02500
C549        C  0.99263298  0.74183598  0.85105481    -0.11600
H550        H  0.93292063  0.68232583  0.87664173     0.08100
H551        H  0.04280296  0.68657475  0.89873937     0.05600
H552        H  0.99473490  0.76440438  0.83437812     0.05400
N553        N  0.95114660  0.98250956  0.44785517    -0.06800
N554        N  0.94085133  0.96863289  0.41806506    -0.58900
N555        N  0.97848897  0.97478931  0.53283703    -0.06500
N556        N  0.98696190  0.95908607  0.56207182    -0.61000
N557        N  0.94447164  0.97674197  0.52988915    -0.06100
N558        N  0.92914952  0.96251147  0.55718918    -0.58900
N559        N  0.98516330  0.97979433  0.45094189    -0.05700
N560        N  0.99854042  0.96431591  0.42325329    -0.61400
C561        C  0.97071377  0.95729706  0.40266420     0.95400
C562        C  0.95597397  0.95149085  0.57713827     0.95200
N563        N  0.04097094  0.06295554  0.54296251    -0.07000
N564        N  0.05563638  0.07238432  0.57223113    -0.59500
N565        N  0.04336614  0.03442928  0.46034885    -0.05100
N566        N  0.05388752  0.02383260  0.42970491    -0.60700
N567        N  0.04533462  0.06848916  0.46243689    -0.07000
N568        N  0.05724086  0.08150774  0.43308510    -0.59700
N569        N  0.03889209  0.02888285  0.54111571    -0.04700
N570        N  0.05227539  0.01458061  0.56940253    -0.60800
Mn571      Mn  0.01267270  0.00331655  0.49656593     1.18400
C572        C  0.06255420  0.04216016  0.58860643     0.97500
C573        C  0.06243625  0.05335653  0.41297299     0.98100
N574        N  0.89453823  0.03835888  0.53166817    -0.07000
N575        N  0.88318336  0.02428814  0.56076664    -0.63300
N576        N  0.89997877  0.07992151  0.45434502    -0.05800
N577        N  0.88615639  0.09536950  0.42689754    -0.64000
N578        N  0.89811886  0.04595920  0.45122773    -0.06500
N579        N  0.88285312  0.03772729  0.42188110    -0.63600
N580        N  0.89720640  0.07229790  0.53508643    -0.05400
N581        N  0.88777869  0.08167538  0.56649205    -0.64300
Mn582      Mn  0.92074025  0.01001327  0.48954608     1.10700
C583        C  0.87915246  0.05155958  0.58224249     0.98700
C584        C  0.87541110  0.06865509  0.40692189     0.98800
N585        N  0.99448916  0.13005021  0.46292838    -0.06500
N586        N  0.00896815  0.14227715  0.43425311    -0.61900
N587        N  0.95522092  0.12864695  0.54307363    -0.05800
N588        N  0.94261745  0.14540859  0.57036834    -0.58600
N589        N  0.98931111  0.12641054  0.54509247    -0.07200
N590        N  0.00048039  0.14167652  0.57384515    -0.61500
N591        N  0.96040463  0.13253981  0.46116647    -0.06100
N592        N  0.95109247  0.14652105  0.43132908    -0.58700
Mn593      Mn  0.01884641  0.09784677  0.50369307     1.20200
Mn594      Mn  0.92699523  0.10444139  0.49850844     1.10100
Cl595      Cl  0.96980978  0.05387072  0.49710828    -0.86600
C596        C  0.98156786  0.15263993  0.41471926     0.95700
C597        C  0.97108035  0.15357644  0.58964191     0.95500
N598        N  0.94689786  0.50522023  0.06550030    -0.06800
N599        N  0.93229704  0.47645256  0.07742171    -0.58900
N600        N  0.98628693  0.58366684  0.07527230    -0.06500
N601        N  0.99947096  0.61294352  0.08719343    -0.61000
N602        N  0.95211492  0.58614959  0.07299335    -0.06100
N603        N  0.94168654  0.61703832  0.08329126    -0.58900
N604        N  0.98108569  0.50288977  0.06756772    -0.05700
N605        N  0.99024685  0.47271208  0.08095077    -0.61400
C606        C  0.95968816  0.45635607  0.08692245     0.95400
C607        C  0.97139581  0.63346216  0.09202102     0.95200
N608        N  0.05033825  0.58941605  0.99166574    -0.07000
N609        N  0.06569615  0.61888563  0.98352052    -0.59500
N610        N  0.04521426  0.50377791  0.01600038    -0.05100
N611        N  0.06089796  0.47446020  0.02549661    -0.60700
N612        N  0.04737350  0.50772039  0.98228290    -0.07000
N613        N  0.06431628  0.48107338  0.96827785    -0.59700
N614        N  0.04836925  0.58602755  0.02540910    -0.04700
N615        N  0.06238250  0.61343229  0.04090567    -0.60800
Mn616      Mn  0.01609103  0.54358187  0.04746517     1.18400
C617        C  0.07320279  0.63380568  0.01431790     0.97500
C618        C  0.07291411  0.46027551  0.99547490     0.98100
N619        N  0.89619833  0.59709520  0.01571183    -0.07000
N620        N  0.87964791  0.62406317  0.02956231    -0.63300
N621        N  0.89460966  0.51895847  0.97253216    -0.05800
N622        N  0.87999206  0.49192585  0.95692797    -0.64000
N623        N  0.89242913  0.51562896  0.00627934    -0.06500
N624        N  0.87624395  0.48656631  0.01430053    -0.63600
N625        N  0.89858987  0.60091593  0.98198616    -0.05400
N626        N  0.88359932  0.63048148  0.97233556    -0.64300
Mn627      Mn  0.92088015  0.55085542  0.04136178     1.10700
C628        C  0.87174751  0.64495238  0.00222377     0.98700
C629        C  0.86837977  0.47190004  0.98343460     0.98800
N630        N  0.99153085  0.51891493  0.92499140    -0.06500
N631        N  0.00256562  0.48873103  0.91350744    -0.61900
N632        N  0.96231668  0.60157474  0.93000663    -0.05800
N633        N  0.95339525  0.63127121  0.91539097    -0.58600
N634        N  0.99646797  0.59911905  0.93224131    -0.07200
N635        N  0.01132459  0.62722551  0.91925528    -0.61500
N636        N  0.95733376  0.52097325  0.92279349    -0.06100
N637        N  0.94463543  0.49194636  0.90982930    -0.58700
Mn638      Mn  0.02239684  0.55392160  0.95673376     1.20200
Mn639      Mn  0.92731629  0.56104355  0.95049032     1.10100
Cl640      Cl  0.97162206  0.55229572  0.99901735    -0.86600
C641        C  0.97316788  0.47218865  0.90422396     0.95700
C642        C  0.98415040  0.64708544  0.90885856     0.95500
N643        N  0.43894833  0.13015424  0.98529346    -0.06800
N644        N  0.41048583  0.14384516  0.97183392    -0.58900
N645        N  0.51741423  0.12111233  0.02501566    -0.06500
N646        N  0.54669807  0.13241617  0.03925524    -0.61000
N647        N  0.51949425  0.12316377  0.99104899    -0.06100
N648        N  0.54986369  0.13571202  0.98164658    -0.58900
N649        N  0.43599227  0.12778170  0.01917853    -0.05700
N650        N  0.40545126  0.13991393  0.02921810    -0.61400
C651        C  0.38986744  0.14982886  0.99942758     0.95400
C652        C  0.56669513  0.14137550  0.01174243     0.95200
N653        N  0.50551105  0.02739549  0.07653224    -0.07000
N654        N  0.53230149  0.01187307  0.09192003    -0.59500
N655        N  0.42575363  0.06883048  0.07380136    -0.05100
N656        N  0.39763831  0.08184310  0.08913231    -0.60700
N657        N  0.42302723  0.03492894  0.07117397    -0.07000
N658        N  0.39310501  0.02430931  0.08481958    -0.59700
N659        N  0.50813251  0.06125741  0.07920886    -0.04700
N660        N  0.53659759  0.06943488  0.09658999    -0.60800
Mn661      Mn  0.47191858  0.09602058  0.05046188     1.18400
C662        C  0.55154320  0.03846540  0.10458207     0.97500
C663        C  0.37724037  0.05381709  0.09609180     0.98100
N664        N  0.52066400  0.07251113  0.92769199    -0.07000
N665        N  0.55052567  0.08286239  0.91376781    -0.63300
N666        N  0.43534916  0.04654598  0.92075966    -0.05800
N667        N  0.40594104  0.03838519  0.90503493    -0.64000
N668        N  0.43808099  0.08040377  0.92338751    -0.06500
N669        N  0.41047572  0.09593219  0.90955758    -0.63600
N670        N  0.51768123  0.03866454  0.92502130    -0.05400
N671        N  0.54546371  0.02537610  0.90937752    -0.64300
Mn672      Mn  0.47966239  0.10286993  0.95603482     1.10700
C673        C  0.56602381  0.05319792  0.90235691     0.98700
C674        C  0.39054782  0.06935682  0.89804617     0.98800
N675        N  0.42487568  0.98424440  0.00779911    -0.06500
N676        N  0.39464775  0.97109991  0.01682661    -0.61900
N677        N  0.50808951  0.98030432  0.97978629    -0.05800
N678        N  0.53860047  0.96838673  0.96949907    -0.58600
N679        N  0.50549903  0.97824443  0.01373511    -0.07200
N680        N  0.53428890  0.96512209  0.02702957    -0.61500
N681        N  0.42716851  0.98641881  0.97388268    -0.06100
N682        N  0.39832327  0.97468535  0.95924919    -0.58700
Mn683      Mn  0.46441327  0.00486983  0.04311282     1.20200
Mn684      Mn  0.47199010  0.01177455  0.94870773     1.10100
Cl685      Cl  0.47202905  0.05389931  0.99962232    -0.86600
C686        C  0.37826613  0.96531108  0.98647522     0.95700
C687        C  0.55459816  0.95909979  0.99922302     0.95500
O688        O  0.76526466  0.69391768  0.74892373    -0.88800
C689        C  0.67195429  0.82008709  0.86844182     1.11200
O690        O  0.75212676  0.77174109  0.75439527    -1.36600
O691        O  0.64229556  0.74791479  0.82335455    -0.90300
O692        O  0.79685643  0.72406784  0.71139550    -0.91000
O693        O  0.70921195  0.75391396  0.68390659    -0.79800
O694        O  0.70699826  0.72191619  0.79153754    -1.01900
C695        C  0.63392976  0.81617087  0.71897160     1.21200
O696        O  0.71871905  0.82874872  0.72830010    -1.36800
Mn697      Mn  0.74411227  0.82202132  0.77851791     1.82100
O698        O  0.64817132  0.78707655  0.71348445    -0.78900
O699        O  0.61530066  0.79071399  0.79512791    -0.88300
C700        C  0.70204264  0.88481719  0.80037367     1.12300
C701        C  0.61521157  0.76117085  0.80984582     1.07100
O702        O  0.79188653  0.84873915  0.76404807    -0.79800
O703        O  0.69407666  0.79631367  0.78679049    -1.33500
O704        O  0.78800328  0.82589904  0.71478865    -0.99000
C705        C  0.68082195  0.85390851  0.65195443     1.05800
Mn706      Mn  0.65162337  0.83050487  0.79055686     1.48600
O707        O  0.70585496  0.83224469  0.64974611    -0.88200
Mn708      Mn  0.79206944  0.77594769  0.71719329     1.49600
O709        O  0.81133000  0.73702486  0.79343394    -0.92100
C710        C  0.68663982  0.70828079  0.77143330     1.19000
C711        C  0.83537946  0.75591284  0.78091749     1.11000
Mn712      Mn  0.69928156  0.77631723  0.73449925     1.81000
O713        O  0.68291431  0.86910573  0.78126038    -0.97300
Mn714      Mn  0.75779978  0.72940381  0.78868073     1.49300
C715        C  0.78384637  0.69615288  0.72185541     1.07500
Mn716      Mn  0.68293013  0.86965098  0.73124046     1.49900
C717        C  0.74340714  0.90942397  0.70076572     1.10400
O718        O  0.75647450  0.78099884  0.68121433    -1.03100
O719        O  0.65608576  0.83440849  0.84355722    -0.92700
C720        C  0.73734882  0.75968450  0.66803846     1.21700
O721        O  0.64784736  0.83460793  0.74033552    -1.03400
O722        O  0.68939873  0.79235144  0.86604062    -0.90800
O723        O  0.72162491  0.90802869  0.72558110    -0.90500
O724        O  0.83150630  0.77521508  0.75443795    -0.90500
Mn725      Mn  0.69573906  0.75735001  0.82586959     1.47900
O726        O  0.73215524  0.87180946  0.80339449    -0.79000
C727        C  0.80215582  0.84727988  0.73290654     1.14800
O728        O  0.67930937  0.72523700  0.74444977    -0.77700
O729        O  0.76893352  0.81001426  0.82791149    -0.77300
Mn730      Mn  0.74900930  0.83093029  0.68325422     1.51100
O731        O  0.67388773  0.87041989  0.67919495    -0.89700
O732        O  0.74641164  0.76004174  0.82715485    -0.97200
O733        O  0.75064801  0.88380887  0.68198248    -0.92200
C734        C  0.76481745  0.78071915  0.84246261     1.12600
C735        C  0.33580758  0.87960787  0.54655369     0.02500
C736        C  0.32346104  0.86542108  0.51558632    -0.13700
C737        C  0.33149827  0.88087034  0.48391879     0.00000
C738        C  0.35264124  0.91027426  0.48301772    -0.12200
C739        C  0.36500211  0.92532056  0.51365160     0.02500
C740        C  0.35719539  0.90937028  0.54554606    -0.11600
H741        H  0.30551678  0.84372806  0.51624442     0.08100
H742        H  0.35729954  0.92279638  0.45832096     0.05600
H743        H  0.36585796  0.92108561  0.56949552     0.05400
C744        C  0.12688111  0.71332256  0.51160065     0.02500
C745        C  0.14857232  0.71285534  0.48264198    -0.13700
C746        C  0.13698550  0.69960957  0.45096753     0.00000
C747        C  0.10381767  0.68274693  0.44969742    -0.12200
C748        C  0.08261148  0.68079320  0.47972692     0.02500
C749        C  0.09404161  0.69776928  0.50956344    -0.11600
H750        H  0.17387156  0.72488641  0.48423251     0.08100
H751        H  0.09455653  0.67187906  0.42558660     0.05600
H752        H  0.07692020  0.69898917  0.53176502     0.05400
C753        C  0.81556002  0.39804951  0.48690478     0.02500
C754        C  0.79448490  0.39770534  0.51655571    -0.13700
C755        C  0.80695842  0.40973808  0.54861131     0.00000
C756        C  0.83915461  0.42811880  0.54927045    -0.12200
C757        C  0.86004997  0.43043177  0.51919892     0.02500
C758        C  0.84841580  0.41385763  0.48905436    -0.11600
H759        H  0.76878256  0.38650676  0.51513443     0.08100
H760        H  0.84820520  0.43967981  0.57310392     0.05600
H761        H  0.86550583  0.41309849  0.46683901     0.05400
C762        C  0.61281740  0.22350615  0.51246741     0.02500
C763        C  0.62352833  0.23787353  0.48100839    -0.13700
C764        C  0.60930094  0.22648844  0.44957708     0.00000
C765        C  0.58603630  0.19799924  0.44971004    -0.12200
C766        C  0.57700680  0.18187082  0.48117899     0.02500
C767        C  0.58800852  0.19695882  0.51216571    -0.11600
H768        H  0.64444381  0.25667455  0.48064076     0.08100
H769        H  0.57618693  0.18769088  0.42559800     0.05600
H770        H  0.57961339  0.18589761  0.53655135     0.05400
C771        C  0.61295777  0.88863180  0.47448287     0.02500
C772        C  0.61418229  0.87178127  0.50619597    -0.13700
C773        C  0.59692760  0.88543838  0.53484652     0.00000
C774        C  0.57709093  0.91597005  0.53062245    -0.12200
C775        C  0.57685068  0.93354268  0.49873286     0.02500
C776        C  0.59314990  0.91865303  0.47019799    -0.11600
H777        H  0.63263764  0.85071420  0.50937692     0.08100
H778        H  0.56477175  0.92781608  0.55286181     0.05600
H779        H  0.59388675  0.93234651  0.44567388     0.05400
C780        C  0.79464767  0.70123218  0.53912762     0.02500
C781        C  0.77933898  0.71084109  0.50729471    -0.13700
C782        C  0.79350633  0.70015924  0.47539454     0.00000
C783        C  0.82405145  0.67947160  0.47591181    -0.12200
C784        C  0.84147270  0.67070443  0.50693409     0.02500
C785        C  0.82606667  0.68145006  0.53869817    -0.11600
H786        H  0.75709423  0.72812126  0.50753082     0.08100
H787        H  0.83509416  0.67101502  0.45158509     0.05600
H788        H  0.83883950  0.67526474  0.56291889     0.05400
C789        C  0.43825653  0.43194162  0.83084122     0.02500
C790        C  0.46785353  0.41537199  0.81788595    -0.13700
C791        C  0.49958911  0.41760147  0.83513020     0.00000
C792        C  0.50263296  0.43868279  0.86434205    -0.12200
C793        C  0.47281415  0.45312219  0.87921497     0.02500
C794        C  0.44115121  0.45175691  0.86124630    -0.11600
H795        H  0.46521192  0.39662723  0.79720534     0.08100
H796        H  0.52731042  0.43989060  0.87790065     0.05600
H797        H  0.41800348  0.46276153  0.87288201     0.05400
C798        C  0.50241558  0.22740331  0.64422618     0.02500
C799        C  0.47038404  0.24413230  0.65060078    -0.13700
C800        C  0.43854907  0.23003055  0.63893505     0.00000
C801        C  0.43959183  0.19780811  0.62077529    -0.12200
C802        C  0.47156266  0.18049286  0.61371053     0.02500
C803        C  0.50267996  0.19611811  0.62528843    -0.11600
H804        H  0.47017018  0.26730077  0.66640501     0.08100
H805        H  0.41541621  0.18607464  0.61240567     0.05600
H806        H  0.52735588  0.18327780  0.62068841     0.05400
C807        C  0.44315402  0.87917338  0.34744291     0.02500
C808        C  0.47589988  0.86417683  0.33967836    -0.13700
C809        C  0.50739126  0.87883577  0.35178535     0.00000
C810        C  0.50543839  0.90932716  0.37236504    -0.12200
C811        C  0.47319701  0.92540251  0.38027665     0.02500
C812        C  0.44237927  0.90908689  0.36877836    -0.11600
H813        H  0.47699318  0.84165101  0.32301384     0.08100
H814        H  0.52921287  0.92071877  0.38217134     0.05600
H815        H  0.41752763  0.92016580  0.37599101     0.05400
C816        C  0.44407155  0.68865940  0.16548759     0.02500
C817        C  0.47556158  0.69156327  0.18267156    -0.13700
C818        C  0.50624268  0.68091866  0.16670684     0.00000
C819        C  0.50440083  0.66403654  0.13446062    -0.12200
C820        C  0.47226479  0.66023102  0.11751742     0.02500
C821        C  0.44199060  0.67214424  0.13359941    -0.11600
H822        H  0.47664791  0.70757537  0.20572497     0.08100
H823        H  0.52848714  0.65712126  0.12099918     0.05600
H824        H  0.41731360  0.67175603  0.11997130     0.05400
C825        C  0.79603052  0.50355555  0.36329055     0.02500
C826        C  0.78138867  0.53459257  0.35165971    -0.13700
C827        C  0.79750721  0.56603570  0.35840102     0.00000
C828        C  0.82720388  0.56707693  0.37918714    -0.12200
C829        C  0.84241184  0.53643214  0.39189247     0.02500
C830        C  0.82679127  0.50423984  0.38350651    -0.11600
H831        H  0.75906334  0.53401552  0.33443369     0.08100
H832        H  0.83973447  0.59188891  0.38340297     0.05600
H833        H  0.83921924  0.48013891  0.39102644     0.05400
C834        C  0.61625045  0.60624891  0.16079595     0.02500
C835        C  0.59813432  0.60588680  0.12879469    -0.13700
C836        C  0.59736589  0.57549960  0.10849992     0.00000
C837        C  0.61557442  0.54637165  0.12012674    -0.12200
C838        C  0.63148380  0.54551155  0.15265627     0.02500
C839        C  0.63091152  0.57526172  0.17323453    -0.11600
H840        H  0.58544136  0.62954525  0.11935930     0.08100
H841        H  0.61690569  0.52354701  0.10374169     0.05600
H842        H  0.64310496  0.57475462  0.19846668     0.05400
C843        C  0.48343290  0.69110507  0.82604516     0.02500
C844        C  0.48220249  0.67671245  0.85934328    -0.13700
C845        C  0.45146320  0.66364767  0.87355434     0.00000
C846        C  0.42013984  0.66824876  0.85531038    -0.12200
C847        C  0.42052657  0.68460480  0.82255250     0.02500
C848        C  0.45247873  0.69283073  0.80689831    -0.11600
H849        H  0.50549392  0.67664047  0.87509308     0.08100
H850        H  0.39557620  0.66147341  0.86730396     0.05600
H851        H  0.45256069  0.70343860  0.78099208     0.05400
C852        C  0.45877963  0.88975796  0.64535912     0.02500
C853        C  0.48991720  0.87334968  0.65465494    -0.13700
C854        C  0.52218433  0.88662837  0.64405697     0.00000
C855        C  0.52312595  0.91842340  0.62508405    -0.12200
C856        C  0.49160697  0.93529229  0.61544021     0.02500
C857        C  0.46006045  0.91917310  0.62406408    -0.11600
H858        H  0.48938630  0.85172633  0.67259858     0.08100
H859        H  0.54792528  0.93035268  0.61915256     0.05600
H860        H  0.43569579  0.93114710  0.61641894     0.05400
C861        C  0.80985584  0.57812783  0.63738875     0.02500
C862        C  0.79174747  0.54699380  0.63657216    -0.13700
C863        C  0.80996808  0.51638414  0.62997299     0.00000
C864        C  0.84283400  0.51789086  0.61432985    -0.12200
C865        C  0.85981571  0.54987580  0.61172375     0.02500
C866        C  0.84364523  0.57956808  0.62407200    -0.11600
H867        H  0.76568057  0.54590283  0.64716555     0.08100
H868        H  0.85665317  0.49409617  0.60845238     0.05600
H869        H  0.85853021  0.60337148  0.62558151     0.05400
C870        C  0.62086752  0.58059130  0.82362973     0.02500
C871        C  0.60079600  0.58206346  0.85432943    -0.13700
C872        C  0.58902568  0.55150282  0.87115976     0.00000
C873        C  0.59758702  0.51888995  0.85581013    -0.12200
C874        C  0.61726638  0.51682086  0.82464287     0.02500
C875        C  0.62859743  0.54796984  0.80913312    -0.11600
H876        H  0.59551788  0.60712145  0.86582741     0.08100
H877        H  0.58968365  0.49508977  0.86846696     0.05600
H878        H  0.64489007  0.54675256  0.78628155     0.05400
C879        C  0.32954456  0.50603181  0.83327776     0.02500
C880        C  0.34838731  0.50585029  0.86492958    -0.13700
C881        C  0.35582545  0.53734606  0.88211577     0.00000
C882        C  0.34654587  0.56858227  0.86596359    -0.12200
C883        C  0.32597851  0.56927488  0.83600553     0.02500
C884        C  0.31778380  0.53785792  0.81977286    -0.11600
H885        H  0.35592785  0.48142299  0.87662868     0.08100
H886        H  0.35321683  0.59294868  0.87819294     0.05600
H887        H  0.30017497  0.53778243  0.79789330     0.05400
C888        C  0.14901498  0.60497007  0.63584153     0.02500
C889        C  0.16441862  0.57361104  0.64549943    -0.13700
C890        C  0.14785449  0.54241986  0.63866056     0.00000
C891        C  0.11666433  0.54226600  0.62022619    -0.12200
C892        C  0.10109547  0.57320451  0.60904364     0.02500
C893        C  0.11718360  0.60505002  0.61742776    -0.11600
H894        H  0.18790448  0.57365371  0.66113143     0.08100
H895        H  0.10355050  0.51771512  0.61629739     0.05600
H896        H  0.10453782  0.62938956  0.61112443     0.05400
N897        N  0.01834260  0.48059760  0.48368468    -0.06800
N898        N  0.04493676  0.46347442  0.46973851    -0.58900
N899        N  0.94037797  0.47749802  0.52781925    -0.06500
N900        N  0.91364185  0.46201546  0.54345924    -0.61000
N901        N  0.93699165  0.47514286  0.49410201    -0.06100
N902        N  0.90846974  0.45800416  0.48611300    -0.58900
N903        N  0.02265756  0.48325076  0.51729529    -0.05700
N904        N  0.05212548  0.46786431  0.52683635    -0.61400
C905        C  0.06606714  0.45551255  0.49692342     0.95400
C906        C  0.89397717  0.44963103  0.51690850     0.95200
N907        N  0.93983300  0.57353685  0.57566103    -0.07000
N908        N  0.90980208  0.58293995  0.58898401    -0.59500
N909        N  0.02262643  0.54770372  0.56854319    -0.05100
N910        N  0.05221715  0.53952738  0.58366538    -0.60700
N911        N  0.01932852  0.58172431  0.56659887    -0.07000
N912        N  0.04681207  0.59719716  0.58045625    -0.59700
N913        N  0.94357014  0.53960652  0.57782147    -0.04700
N914        N  0.91614672  0.52538285  0.59249594    -0.60800
Mn915      Mn  0.98281665  0.51121358  0.54902093     1.18400
C916        C  0.89549100  0.55270125  0.59936132     0.97500
C917        C  0.06714686  0.57043282  0.59098390     0.98100
N918        N  0.92442939  0.52825453  0.43437196    -0.07000
N919        N  0.89668175  0.51279052  0.42099809    -0.63300
N920        N  0.00150547  0.56976013  0.42326754    -0.05800
N921        N  0.02965476  0.58295719  0.40861361    -0.64000
N922        N  0.00452400  0.53579963  0.42606251    -0.06500
N923        N  0.03452139  0.52539560  0.41356450    -0.63600
N924        N  0.92115417  0.56223694  0.43228209    -0.05400
N925        N  0.89128614  0.57041154  0.41755840    -0.64300
Mn926      Mn  0.97099274  0.50404507  0.45856029     1.10700
C927        C  0.87614620  0.53948993  0.41061006     0.98700
C928        C  0.04992370  0.55486755  0.40284745     0.98800
N929        N  0.00656410  0.63517818  0.50644564    -0.06500
N930        N  0.03490534  0.65291676  0.51386823    -0.61900
N931        N  0.92084549  0.62600563  0.48405518    -0.05800
N932        N  0.89065252  0.64007686  0.47480799    -0.58600
N933        N  0.92507683  0.62868940  0.51770608    -0.07200
N934        N  0.89778476  0.64459498  0.53187832    -0.61500
N935        N  0.00296032  0.63253541  0.47276011    -0.06100
N936        N  0.02917247  0.64833771  0.45661761    -0.58700
Mn937      Mn  0.97277807  0.60588241  0.54262325     1.20200
Mn938      Mn  0.96116548  0.59851602  0.45182356     1.10100
Cl939      Cl  0.97198666  0.55497774  0.50054396    -0.86600
C940        C  0.04889815  0.66129270  0.48274669     0.95700
C941        C  0.87619498  0.65169521  0.50482627     0.95500
N942        N  0.49767082  0.48715632  0.04499821    -0.06800
N943        N  0.51192928  0.47613281  0.07441141    -0.58900
N944        N  0.45816080  0.47878150  0.96570448    -0.06500
N945        N  0.44541394  0.46797137  0.93587900    -0.61000
N946        N  0.49233314  0.48114414  0.96378436    -0.06100
N947        N  0.50324117  0.47187312  0.93281341    -0.58900
N948        N  0.46351027  0.48432579  0.04660521    -0.05700
N949        N  0.45403787  0.47170525  0.07678500    -0.61400
C950        C  0.48419357  0.46667811  0.09408538     0.95400
C951        C  0.47378541  0.46392294  0.91566774     0.95200
N952        N  0.39118383  0.56108495  0.96377434    -0.07000
N953        N  0.37657978  0.56991124  0.93414738    -0.59500
N954        N  0.39825709  0.53342420  0.04796977    -0.05100
N955        N  0.38303252  0.52211249  0.07678839    -0.60700
N956        N  0.39525372  0.56733214  0.04562946    -0.07000
N957        N  0.37803436  0.57964694  0.07281834    -0.59700
N958        N  0.39451626  0.52720535  0.96570909    -0.04700
N959        N  0.38210781  0.51235662  0.93727784    -0.60800
Mn960      Mn  0.42783316  0.50445923  0.00678354     1.18400
C961        C  0.37089333  0.53941123  0.91772720     0.97500
C962        C  0.37037098  0.55122585  0.09236233     0.98100
N963        N  0.54571627  0.53985610  0.95330003    -0.07000
N964        N  0.56245659  0.52637835  0.92638575    -0.63300
N965        N  0.54786297  0.58208792  0.03087468    -0.05800
N966        N  0.56394720  0.59818897  0.05661615    -0.64000
N967        N  0.55092266  0.54831159  0.03415018    -0.06500
N968        N  0.56941493  0.54066897  0.06185090    -0.63600
N969        N  0.54211793  0.57360614  0.94941110    -0.05400
N970        N  0.55672776  0.58361270  0.91978736    -0.64300
Mn971      Mn  0.52270016  0.51285201  0.99945270     1.10700
C972        C  0.56941103  0.55382878  0.90537367     0.98700
C973        C  0.57754808  0.57192703  0.07566234     0.98800
N974        N  0.45007684  0.62696606  0.03566115    -0.06500
N975        N  0.44016762  0.63799893  0.06635067    -0.61900
N976        N  0.47666084  0.62486124  0.95247452    -0.05800
N977        N  0.48487551  0.64011651  0.92319956    -0.58600
N978        N  0.44259398  0.62250146  0.95551316    -0.07200
N979        N  0.42705449  0.63605477  0.92793763    -0.61500
N980        N  0.48410974  0.63003299  0.03223456    -0.06100
N981        N  0.49781133  0.64303193  0.06072151    -0.58700
Mn982      Mn  0.41863668  0.59557453  0.00025805     1.20200
Mn983      Mn  0.51341148  0.60395694  0.99067433     1.10100
Cl984      Cl  0.47067827  0.55427641  0.99936822    -0.86600
C985        C  0.47012945  0.64793010  0.08164286     0.95700
C986        C  0.45392063  0.64706942  0.90806656     0.95500
N987        N  0.49225549  0.10079959  0.56953159    -0.06800
N988        N  0.50269728  0.13048519  0.58350003    -0.58900
N989        N  0.46638077  0.01557251  0.57637792    -0.06500
N990        N  0.45817359  0.98615882  0.59185453    -0.61000
N991        N  0.50036193  0.01827775  0.57369836    -0.06100
N992        N  0.51589186  0.99051861  0.58737100    -0.58900
N993        N  0.45834914  0.09765939  0.57265621    -0.05700
N994        N  0.44508503  0.12521353  0.58859094    -0.61400
C995        C  0.47301020  0.14572233  0.59542456     0.95400
C996        C  0.48912703  0.97055546  0.59878098     0.95200
N997        N  0.40246319  0.00559753  0.48989664    -0.07000
N998        N  0.38839245  0.97581213  0.48096468    -0.59500
N999        N  0.39990634  0.08881470  0.51839494    -0.05100
N1000       N  0.39132512  0.12031285  0.52865060    -0.60700
N1001       N  0.39709398  0.08642459  0.48447848    -0.07000
N1002       N  0.38665155  0.11630517  0.47131906    -0.59700
N1003       N  0.40516753  0.00764858  0.52379818    -0.04700
N1004       N  0.39284437  0.97909603  0.53848231    -0.60800
Mn1005     Mn  0.43119297  0.05222539  0.54893758     1.18400
C1006       C  0.38250395  0.95945199  0.51134629     0.97500
C1007       C  0.38333502  0.13715724  0.49905848     0.98100
N1008       N  0.54857692  0.01961595  0.51063257    -0.07000
N1009       N  0.56049284  0.99042773  0.52400857    -0.63300
N1010       N  0.53963811  0.09804445  0.47095046    -0.05800
N1011       N  0.55084319  0.12707122  0.45620361    -0.64000
N1012       N  0.54208348  0.10030313  0.50486809    -0.06500
N1013       N  0.55484974  0.13068602  0.51369768    -0.63600
N1014       N  0.54576000  0.01684933  0.47675905    -0.05400
N1015       N  0.55591516  0.98574592  0.46666386    -0.64300
Mn1016     Mn  0.52228678  0.06020126  0.54048515     1.10700
C1017       C  0.56485307  0.96961714  0.49641433     0.98700
C1018       C  0.56011710  0.14729710  0.48330053     0.98800
N1019       N  0.44514473  0.08688353  0.42120316    -0.06500
N1020       N  0.42965868  0.11454789  0.40744605    -0.61900
N1021       N  0.48659979  0.00749031  0.42259402    -0.05800
N1022       N  0.49967499  0.98001839  0.40643399    -0.58600
N1023       N  0.45264193  0.00452960  0.42559241    -0.07200
N1024       N  0.44200620  0.97501928  0.41134324    -0.61500
N1025       N  0.47910423  0.08947187  0.41832252    -0.06100
N1026       N  0.48737628  0.11876844  0.40259165    -0.58700
Mn1027     Mn  0.42286190  0.04541785  0.45450102     1.20200
Mn1028     Mn  0.51406682  0.05301635  0.44602285     1.10100
Cl1029     Cl  0.47261346  0.05263072  0.49748621    -0.86600
C1030       C  0.45640007  0.13431418  0.39573941     0.95700
C1031       C  0.47164462  0.95969704  0.39941647     0.95500
O1032       O  0.14015332  0.37734915  0.28776617    -0.88800
C1033       C  0.19657619  0.19367000  0.29669057     1.11200
O1034       O  0.18771314  0.33014535  0.24673563    -1.36600
O1035       O  0.23667286  0.27209062  0.34854151    -0.90300
O1036       O  0.18167144  0.40518263  0.25900340    -0.91000
O1037       O  0.26120378  0.37799363  0.25569103    -0.79800
O1038       O  0.18240001  0.32072588  0.31881942    -1.01900
C1039       C  0.30551442  0.28676176  0.28259168     1.21200
O1040       O  0.24528562  0.30732962  0.21380104    -1.36800
Mn1041     Mn  0.19591156  0.28112323  0.22167126     1.82100
O1042       O  0.29130995  0.31593060  0.28788053    -0.78900
O1043       O  0.26483355  0.23014436  0.32053126    -0.88300
C1044       C  0.23913342  0.22011290  0.19794353     1.12300
C1045       C  0.26038886  0.24899122  0.34687693     1.07100
O1046       O  0.17018843  0.29459506  0.17287828    -0.79800
O1047       O  0.22148986  0.27409477  0.27156500    -1.33500
O1048       O  0.19010529  0.34599874  0.17348432    -0.99000
C1049       C  0.32259484  0.34340004  0.18979403     1.05800
Mn1050     Mn  0.25681942  0.23315712  0.26787511     1.48600
O1051       O  0.29543674  0.35406906  0.17423605    -0.88200
Mn1052     Mn  0.18237343  0.37402803  0.21556774     1.49600
O1053       O  0.10925503  0.32259922  0.24496659    -0.92100
C1054       C  0.19994992  0.34324457  0.33180913     1.19000
C1055       C  0.10457328  0.34710788  0.22368699     1.11000
Mn1056     Mn  0.24042028  0.32669425  0.26636968     1.81000
O1057       O  0.25799402  0.23523520  0.21783464    -0.97300
Mn1058     Mn  0.14713917  0.32441507  0.28307141     1.49300
C1059       C  0.15987505  0.40314907  0.28332724     1.07500
Mn1060     Mn  0.28882745  0.27456275  0.21044543     1.49900
C1061       C  0.26733435  0.28319622  0.13251629     1.10400
O1062       O  0.23267356  0.37993932  0.20918497    -1.03100
O1063       O  0.21675193  0.19582370  0.27069794    -0.92700
C1064       C  0.25358502  0.39408889  0.22813259     1.21700
O1065       O  0.29215640  0.26852988  0.26066360    -1.03400
O1066       O  0.19421889  0.21757601  0.31865138    -0.90800
O1067       O  0.28597410  0.27201808  0.15715508    -0.90500
O1068       O  0.12790647  0.36933589  0.21665023    -0.90500
Mn1069     Mn  0.19235397  0.27095693  0.31688275     1.47900
O1070       O  0.20876714  0.23260344  0.19532085    -0.79000
C1071       C  0.17165215  0.32470057  0.15913629     1.14800
O1072       O  0.22895930  0.34886477  0.31718577    -0.77700
O1073       O  0.14886453  0.25313090  0.23631492    -0.77300
Mn1074     Mn  0.24176167  0.34543146  0.17403794     1.51100
O1075       O  0.32356912  0.31594005  0.20802356    -0.89700
O1076       O  0.15214633  0.27429200  0.28646111    -0.97200
O1077       O  0.24647909  0.30864257  0.13487229    -0.92200
C1078       C  0.13872056  0.25308251  0.26763173     1.12600
C1079       C  0.68626533  0.65358927  0.80698268    -0.09800
C1080       C  0.66992091  0.67407638  0.78131629     0.06400
C1081       C  0.63698812  0.66272293  0.76902396    -0.03600
C1082       C  0.62141325  0.63228169  0.78264639    -0.08000
C1083       C  0.63767211  0.61264238  0.80888717     0.05500
C1084       C  0.67057103  0.62358816  0.82066539    -0.03100
Br1085     Br  0.69459176  0.59887249  0.85661998    -0.02800
H1086       H  0.71130816  0.66138002  0.81723874     0.09400
H1087       H  0.59607683  0.62436645  0.77325149     0.07400
Br1088     Br  0.61058700  0.68883888  0.73579308    -0.03200
C1089       C  0.80552176  0.64065184  0.64520059    -0.09800
C1090       C  0.79713621  0.60765082  0.65758947     0.06400
C1091       C  0.78432407  0.60386698  0.69177446    -0.03600
C1092       C  0.77881365  0.63325477  0.71177099    -0.08000
C1093       C  0.78988158  0.66579329  0.70013273     0.05500
C1094       C  0.80564337  0.66881800  0.66708823    -0.03100
Br1095     Br  0.83229834  0.70796427  0.65055097    -0.02800
H1096       H  0.81590245  0.64389878  0.61933391     0.09400
H1097       H  0.76800432  0.63025893  0.73748059     0.07400
Br1098     Br  0.77882094  0.56026283  0.71551502    -0.03200
C1099       C  0.59388547  0.86577992  0.70771079    -0.09800
C1100       C  0.60434994  0.83181080  0.69854684     0.06400
C1101       C  0.58864032  0.81681917  0.66906823    -0.03600
C1102       C  0.56338982  0.83574446  0.65005673    -0.08000
C1103       C  0.55372084  0.86986860  0.65942146     0.05500
C1104       C  0.56925902  0.88450417  0.68876549    -0.03100
Br1105     Br  0.55577099  0.92925133  0.70592812    -0.02800
H1106       H  0.60509854  0.87846003  0.72999000     0.09400
H1107       H  0.55071378  0.82351824  0.62823438     0.07400
Br1108     Br  0.60010871  0.77087898  0.65380609    -0.03200
C1109       C  0.55199909  0.75602086  0.79601046    -0.09800
C1110       C  0.58207179  0.74131973  0.81089387     0.06400
C1111       C  0.57931485  0.70827041  0.82662086    -0.03600
C1112       C  0.54794895  0.69032905  0.82518461    -0.08000
C1113       C  0.51702053  0.70659788  0.81419175     0.05500
C1114       C  0.51949206  0.73993435  0.79884516    -0.03100
Br1115     Br  0.48021185  0.76766492  0.78497032    -0.02800
H1116       H  0.55317531  0.78141489  0.78401306     0.09400
H1117       H  0.54709805  0.66454134  0.83637828     0.07400
Br1118     Br  0.61442011  0.68775628  0.85576021    -0.03200
C1119       C  0.76905799  0.76424862  0.61153394    -0.09800
C1120       C  0.74792824  0.74406850  0.63365592     0.06400
C1121       C  0.74141645  0.70931984  0.62366671    -0.03600
C1122       C  0.75716530  0.69538040  0.59342784    -0.08000
C1123       C  0.77922038  0.71555798  0.57216129     0.05500
C1124       C  0.78408863  0.75062471  0.58127245    -0.03100
Br1125     Br  0.81179835  0.78110960  0.55332507    -0.02800
H1126       H  0.77440719  0.79103986  0.61805888     0.09400
H1127       H  0.75223888  0.66860691  0.58658451     0.07400
Br1128     Br  0.71292286  0.67931730  0.65130158    -0.03200
C1129       C  0.62101357  0.90157002  0.59127924    -0.09800
C1130       C  0.61002760  0.87497909  0.56927997     0.06400
C1131       C  0.62032697  0.84046982  0.57661603    -0.03600
C1132       C  0.64514247  0.83404580  0.60234027    -0.08000
C1133       C  0.65762641  0.86123370  0.62280266     0.05500
C1134       C  0.64389807  0.89503737  0.61812594    -0.03100
Br1135     Br  0.65606870  0.93468814  0.64587825    -0.02800
H1136       H  0.61381766  0.92829296  0.58637540     0.09400
H1137       H  0.65376614  0.80770201  0.60715433     0.07400
Br1138     Br  0.60063350  0.80139633  0.55290141    -0.03200
C1139       C  0.93055711  0.73986260  0.79979344    -0.09800
C1140       C  0.92986560  0.73884046  0.83612248     0.06400
C1141       C  0.89919928  0.74779129  0.85370126    -0.03600
C1142       C  0.86917905  0.75532248  0.83494283    -0.08000
C1143       C  0.86914328  0.75450956  0.79868974     0.05500
C1144       C  0.90039014  0.74755091  0.78093795    -0.03100
Br1145     Br  0.90235386  0.74406356  0.73144513    -0.02800
H1146       H  0.95413375  0.73287075  0.78608357     0.09400
H1147       H  0.84538745  0.76069855  0.84874525     0.07400
Br1148     Br  0.89709806  0.74967278  0.90325067    -0.03200
C1149       C  0.88413240  0.90191014  0.71468180    -0.09800
C1150       C  0.88544367  0.90051756  0.67808423     0.06400
C1151       C  0.85734763  0.88497017  0.66065066    -0.03600
C1152       C  0.83028812  0.86987549  0.67949907    -0.08000
C1153       C  0.82985366  0.86909363  0.71609773     0.05500
C1154       C  0.85687985  0.88633623  0.73366626    -0.03100
Br1155     Br  0.85988370  0.88649659  0.78312027    -0.02800
H1156       H  0.90550595  0.91360471  0.72871942     0.09400
H1157       H  0.81008516  0.85691472  0.66490516     0.07400
Br1158     Br  0.85601546  0.87884895  0.61134839    -0.03200
C1159       C  0.71183639  0.94367176  0.82957730    -0.09800
C1160       C  0.68888479  0.91818451  0.81689143     0.06400
C1161       C  0.65256228  0.92603673  0.81848370    -0.03600
C1162       C  0.64057818  0.95806302  0.83106489    -0.08000
C1163       C  0.66326638  0.98382452  0.84306402     0.05500
C1164       C  0.69951954  0.97587773  0.84264674    -0.03100
Br1165     Br  0.73366002  0.00697598  0.86121243    -0.02800
H1166       H  0.73959413  0.93871522  0.82909420     0.09400
H1167       H  0.61282392  0.96307270  0.83077858     0.07400
Br1168     Br  0.61623560  0.89481000  0.80448370    -0.03200
C1169       C  0.79518696  0.97327972  0.64932950    -0.09800
C1170       C  0.81673376  0.98741145  0.67481025     0.06400
C1171       C  0.81192158  0.97737499  0.70969528    -0.03600
C1172       C  0.78511971  0.95444680  0.71846607    -0.08000
C1173       C  0.76367224  0.94045072  0.69278337     0.05500
C1174       C  0.76935547  0.94968399  0.65782075    -0.03100
Br1175     Br  0.74394367  0.92994861  0.61980515    -0.02800
H1176       H  0.79786687  0.98116174  0.62255201     0.09400
H1177       H  0.78251434  0.94579509  0.74502888     0.07400
Br1178     Br  0.84242341  0.99251187  0.74595365    -0.03200
C1179       C  0.81527454  0.77605045  0.92989915    -0.09800
C1180       C  0.80739216  0.74200090  0.94090446     0.06400
C1181       C  0.78510104  0.72208645  0.91993704    -0.03600
C1182       C  0.77185670  0.73571051  0.88893500    -0.08000
C1183       C  0.78017127  0.76944514  0.87697512     0.05500
C1184       C  0.80252379  0.78958534  0.89814313    -0.03100
Br1185     Br  0.81872225  0.83447871  0.88429721    -0.02800
H1186       H  0.83245181  0.79182091  0.94553847     0.09400
H1187       H  0.75473889  0.71925025  0.87396473     0.07400
Br1188     Br  0.77022646  0.67632889  0.93310844    -0.03200
C1189       C  0.67769337  0.88958210  0.93392526    -0.09800
C1190       C  0.64604845  0.88422460  0.95088534     0.06400
C1191       C  0.62710336  0.85349415  0.94550695    -0.03600
C1192       C  0.63818340  0.83026997  0.92038057    -0.08000
C1193       C  0.66844677  0.83698714  0.90152244     0.05500
C1194       C  0.68914389  0.86590512  0.90939677    -0.03100
Br1195     Br  0.73255483  0.87448916  0.88687928    -0.02800
H1196       H  0.69318465  0.91237889  0.93949918     0.09400
H1197       H  0.62225880  0.80789994  0.91429793     0.07400
Br1198     Br  0.58635976  0.84205422  0.97190217    -0.03200
C1199       C  0.77159999  0.65731877  0.33565947    -0.09800
C1200       C  0.77622509  0.65718604  0.29975607     0.06400
C1201       C  0.78461102  0.62603533  0.28279717    -0.03600
C1202       C  0.79011580  0.59605695  0.30236699    -0.08000
C1203       C  0.78720220  0.59682676  0.33859101     0.05500
C1204       C  0.77702204  0.62747062  0.35519022    -0.03100
Br1205     Br  0.76995357  0.62953689  0.40422616    -0.02800
H1206       H  0.76391772  0.68079534  0.34856897     0.09400
H1207       H  0.79805205  0.57240391  0.28944704     0.07400
Br1208     Br  0.79157386  0.62366485  0.23367466    -0.03200
C1209       C  0.62149056  0.64114649  0.21571291    -0.09800
C1210       C  0.62523105  0.63887415  0.17937026     0.06400
C1211       C  0.64447475  0.66472247  0.16231986    -0.03600
C1212       C  0.66039535  0.69078206  0.18130645    -0.08000
C1213       C  0.65876788  0.69227814  0.21777039     0.05500
C1214       C  0.63793613  0.66758786  0.23495860    -0.03100
Br1215     Br  0.63274722  0.66737616  0.28423311    -0.02800
H1216       H  0.60699904  0.62122619  0.22939587     0.09400
H1217       H  0.67563551  0.70959781  0.16683359     0.07400
Br1218     Br  0.65482510  0.66365612  0.11366545    -0.03200
C1219       C  0.57060154  0.73060977  0.22119792    -0.09800
C1220       C  0.58434035  0.75268323  0.19582330     0.06400
C1221       C  0.57540913  0.74739147  0.16076628    -0.03600
C1222       C  0.55238567  0.72142624  0.15181544    -0.08000
C1223       C  0.53782088  0.69981168  0.17695031     0.05500
C1224       C  0.54762649  0.70400382  0.21193728    -0.03100
Br1225     Br  0.53096913  0.67352601  0.24755301    -0.02800
H1226       H  0.57903056  0.73295311  0.24781202     0.09400
H1227       H  0.54453956  0.71931578  0.12493096     0.07400
Br1228     Br  0.59428202  0.77402091  0.12310529    -0.03200
C1229       C  0.54812167  0.82684148  0.34337757    -0.09800
C1230       C  0.54219227  0.86312328  0.34135972     0.06400
C1231       C  0.56934705  0.88364453  0.32761919    -0.03600
C1232       C  0.60093212  0.86841449  0.31737718    -0.08000
C1233       C  0.60677850  0.83218885  0.31824094     0.05500
C1234       C  0.57967706  0.81137953  0.33179633    -0.03100
Br1235     Br  0.58326810  0.76180755  0.33308585    -0.02800
H1236       H  0.52778021  0.81023891  0.35344634     0.09400
H1237       H  0.62085377  0.88542255  0.30717541     0.07400
Br1238     Br  0.56388018  0.93225490  0.31769690    -0.03200
C1239       C  0.68918729  0.89132516  0.41426367    -0.09800
C1240       C  0.68655259  0.85857193  0.39917203     0.06400
C1241       C  0.66146535  0.83478839  0.41052720    -0.03600
C1242       C  0.63731840  0.84504248  0.43516649    -0.08000
C1243       C  0.63840050  0.87870676  0.44857112     0.05500
C1244       C  0.66558444  0.90142538  0.43939877    -0.03100
Br1245     Br  0.67218668  0.94600776  0.46059909    -0.02800
H1246       H  0.70866352  0.90958758  0.40531855     0.09400
H1247       H  0.61723613  0.82709648  0.44334676     0.07400
Br1248     Br  0.65777351  0.78922632  0.39143460    -0.03200
C1249       C  0.73327004  0.72989729  0.39992559    -0.09800
C1250       C  0.75771468  0.74189238  0.37547871     0.06400
C1251       C  0.79352681  0.73742043  0.38397415    -0.03600
C1252       C  0.80372089  0.72493892  0.41642887    -0.08000
C1253       C  0.77960268  0.71395004  0.44130688     0.05500
C1254       C  0.74376791  0.71588364  0.43227410    -0.03100
Br1255     Br  0.70804156  0.69727314  0.46152301    -0.02800
H1256       H  0.70583715  0.73094063  0.39375773     0.09400
H1257       H  0.83131858  0.72336152  0.42199172     0.07400
Br1258     Br  0.83120018  0.74274300  0.35194819    -0.03200
C1259       C  0.68841629  0.87606331  0.10487622    -0.09800
C1260       C  0.66034920  0.86246257  0.12360032     0.06400
C1261       C  0.62656889  0.87612545  0.11816446    -0.03600
C1262       C  0.62106510  0.90036214  0.09235541    -0.08000
C1263       C  0.64845141  0.91193032  0.07147667     0.05500
C1264       C  0.68281556  0.90125864  0.07939604    -0.03100
Br1265     Br  0.72276937  0.92001490  0.05610991    -0.02800
H1266       H  0.71473434  0.86760229  0.11052585     0.09400
H1267       H  0.59443707  0.90783950  0.08691954     0.07400
Br1268     Br  0.58557537  0.86200207  0.14314621    -0.03200
C1269       C  0.80274003  0.79182593  0.11159955    -0.09800
C1270       C  0.78358629  0.77072361  0.13442855     0.06400
C1271       C  0.78019561  0.73478046  0.12522272    -0.03600
C1272       C  0.79482451  0.72172461  0.09465341    -0.08000
C1273       C  0.81312532  0.74282034  0.07158287     0.05500
C1274       C  0.81739056  0.77827208  0.08070836    -0.03100
Br1275     Br  0.84445819  0.80903922  0.05263714    -0.02800
H1276       H  0.80611442  0.81905991  0.11753860     0.09400
H1277       H  0.79093722  0.69462162  0.08830900     0.07400
Br1278     Br  0.75570849  0.70007560  0.15177089    -0.03200
C1279       C  0.70587279  0.93603299  0.17180123    -0.09800
C1280       C  0.68678938  0.91578605  0.19543379     0.06400
C1281       C  0.65028894  0.92274421  0.19847153    -0.03600
C1282       C  0.63442874  0.94845546  0.17853120    -0.08000
C1283       C  0.65360606  0.96972179  0.15662367     0.05500
C1284       C  0.68979840  0.96327609  0.15314200    -0.03100
Br1285     Br  0.71841053  0.99153243  0.12385298    -0.02800
H1286       H  0.73349309  0.93139729  0.16855018     0.09400
H1287       H  0.60694817  0.95372834  0.18228254     0.07400
Br1288     Br  0.61870582  0.90057562  0.23019240    -0.03200
C1289       C  0.76509098  0.97287575  0.29155111    -0.09800
C1290       C  0.77840130  0.94331529  0.30846976     0.06400
C1291       C  0.80970298  0.94669579  0.32725874    -0.03600
C1292       C  0.82869859  0.97711268  0.32514132    -0.08000
C1293       C  0.81336911  0.00787199  0.31291067     0.05500
C1294       C  0.78096979  0.00539802  0.29534331    -0.03100
Br1295     Br  0.75411373  0.04442586  0.27943124    -0.02800
H1296       H  0.74072425  0.97135720  0.27751256     0.09400
H1297       H  0.85382859  0.97771785  0.33787419     0.07400
Br1298     Br  0.82365523  0.91646249  0.36417692    -0.03200
C1299       C  0.89143138  0.87011250  0.32780443    -0.09800
C1300       C  0.91051188  0.89172227  0.30593910     0.06400
C1301       C  0.89821132  0.89638894  0.27166408    -0.03600
C1302       C  0.86731035  0.87971996  0.26032155    -0.08000
C1303       C  0.84795819  0.85796279  0.28253984     0.05500
C1304       C  0.86081996  0.85373484  0.31696120    -0.03100
Br1305     Br  0.83744908  0.82886744  0.35315983    -0.02800
H1306       H  0.90031952  0.86618009  0.35414734     0.09400
H1307       H  0.85834421  0.88399864  0.23409550     0.07400
Br1308     Br  0.92185053  0.92641777  0.23991933    -0.03200
C1309       C  0.89948240  0.76008585  0.15286628    -0.09800
C1310       C  0.91300145  0.72627817  0.15102917     0.06400
C1311       C  0.90289649  0.70126586  0.17584983    -0.03600
C1312       C  0.87722177  0.70929271  0.19954166    -0.08000
C1313       C  0.86282806  0.74242200  0.20050521     0.05500
C1314       C  0.87479195  0.76848879  0.17798582    -0.03100
Br1315     Br  0.85844296  0.81542013  0.18070939    -0.02800
H1316       H  0.90862736  0.77995384  0.13522204     0.09400
H1317       H  0.86834436  0.68950166  0.21745055     0.07400
Br1318     Br  0.92485859  0.65667941  0.18132200    -0.03200
C1319       C  0.20304029  0.68458460  0.65629424    -0.09800
C1320       C  0.19577688  0.68817261  0.69173196     0.06400
C1321       C  0.17291346  0.66428575  0.70785453    -0.03600
C1322       C  0.15664380  0.63890508  0.68833559    -0.08000
C1323       C  0.16291264  0.63597230  0.65288457     0.05500
C1324       C  0.18692215  0.65835243  0.63687670    -0.03100
Br1325     Br  0.19776644  0.65399040  0.58876282    -0.02800
H1326       H  0.21997834  0.70298810  0.64343724     0.09400
H1327       H  0.13936756  0.62068864  0.70107861     0.07400
Br1328     Br  0.16230766  0.66426031  0.75654695    -0.03200
C1329       C  0.28627300  0.64525176  0.78530161    -0.09800
C1330       C  0.27408539  0.66579345  0.81265914     0.06400
C1331       C  0.27891200  0.65446737  0.84688100    -0.03600
C1332       C  0.29484281  0.62276224  0.85328712    -0.08000
C1333       C  0.30830870  0.60234120  0.82630689     0.05500
C1334       C  0.30409788  0.61407942  0.79182791    -0.03100
Br1335     Br  0.32406072  0.59055167  0.75289176    -0.02800
H1336       H  0.28290701  0.65405027  0.75888657     0.09400
H1337       H  0.29664576  0.61406237  0.87988478     0.07400
Br1338     Br  0.26340967  0.68053044  0.88625640    -0.03200
C1339       C  0.35082650  0.75212378  0.81128516    -0.09800
C1340       C  0.33705846  0.74453897  0.77840751     0.06400
C1341       C  0.34984333  0.71499606  0.76072739    -0.03600
C1342       C  0.37589485  0.69431350  0.77606932    -0.08000
C1343       C  0.38913270  0.70222605  0.80902602     0.05500
C1344       C  0.37633958  0.73154697  0.82648664    -0.03100
Br1345     Br  0.39475029  0.74681265  0.87014155    -0.02800
H1346       H  0.34183048  0.77454334  0.82559687     0.09400
H1347       H  0.38631718  0.67235215  0.76200735     0.07400
Br1348     Br  0.33345594  0.70149617  0.71583399    -0.03200
C1349       C  0.38236832  0.84118681  0.68653277    -0.09800
C1350       C  0.36239653  0.86919598  0.69852364     0.06400
C1351       C  0.37382819  0.90327577  0.69225684    -0.03600
C1352       C  0.40542977  0.90884608  0.67576866    -0.08000
C1353       C  0.42543827  0.88112881  0.66296763     0.05500
C1354       C  0.41328690  0.84686994  0.66805957    -0.03100
Br1355     Br  0.43577099  0.80718821  0.64813344    -0.02800
H1356       H  0.37319335  0.81488990  0.69041449     0.09400
H1357       H  0.41435260  0.93534834  0.67293644     0.07400
Br1358     Br  0.34788949  0.94362124  0.70580202    -0.03200
C1359       C  0.32405349  0.83084864  0.58758060    -0.09800
C1360       C  0.32087616  0.86629129  0.57924829     0.06400
C1361       C  0.29838796  0.88717073  0.59893088    -0.03600
C1362       C  0.27948707  0.87259093  0.62597463    -0.08000
C1363       C  0.28204452  0.83703906  0.63436046     0.05500
C1364       C  0.30505016  0.81610901  0.61495126    -0.03100
Br1365     Br  0.31051835  0.76725998  0.62304345    -0.02800
H1366       H  0.34065302  0.81436143  0.57201057     0.09400
H1367       H  0.26221552  0.88949280  0.64033201     0.07400
Br1368     Br  0.28956254  0.93511784  0.58821619    -0.03200
C1369       C  0.16531762  0.77501585  0.57846042    -0.09800
C1370       C  0.15470886  0.75904515  0.60943408     0.06400
C1371       C  0.13439881  0.72845672  0.60751838    -0.03600
C1372       C  0.12845167  0.71306248  0.57562970    -0.08000
C1373       C  0.13807759  0.72944006  0.54462973     0.05500
C1374       C  0.15576770  0.76155157  0.54632497    -0.03100
Br1375     Br  0.16351309  0.79107911  0.50689409    -0.02800
H1376       H  0.17925097  0.79942036  0.57910323     0.09400
H1377       H  0.11475901  0.68852656  0.57517921     0.07400
Br1378     Br  0.11030081  0.70735175  0.64583567    -0.03200
C1379       C  0.10603897  0.73725062  0.81750289    -0.09800
C1380       C  0.11138993  0.77342141  0.81834861     0.06400
C1381       C  0.09043626  0.79359697  0.84057481    -0.03600
C1382       C  0.06298586  0.77776084  0.85864564    -0.08000
C1383       C  0.05650015  0.74192622  0.85562141     0.05500
C1384       C  0.07917819  0.72151738  0.83569047    -0.03100
Br1385     Br  0.07251623  0.67265868  0.82829459    -0.02800
H1386       H  0.12223419  0.72078596  0.80152970     0.09400
H1387       H  0.04558974  0.79372458  0.87390214     0.07400
Br1388     Br  0.09662358  0.84260684  0.84640408    -0.03200
C1389       C  0.06466543  0.84586304  0.65435008    -0.09800
C1390       C  0.07467655  0.84723658  0.68915247     0.06400
C1391       C  0.05244333  0.86279349  0.71341464    -0.03600
C1392       C  0.02206722  0.87945539  0.70215358    -0.08000
C1393       C  0.01273128  0.87939181  0.66697718     0.05500
C1394       C  0.03357916  0.86083677  0.64326294    -0.03100
Br1395     Br  0.02008072  0.85277288  0.59603277    -0.02800
H1396       H  0.08099275  0.83258363  0.63571306     0.09400
H1397       H  0.00591437  0.89279850  0.72085293     0.07400
Br1398     Br  0.06278276  0.86255949  0.76171952    -0.03200
C1399       C  0.26673111  0.00386162  0.82280034    -0.09800
C1400       C  0.30198748  0.01358974  0.82403153     0.06400
C1401       C  0.32681087  0.99353123  0.80610948    -0.03600
C1402       C  0.31690333  0.96226778  0.79132821    -0.08000
C1403       C  0.28199268  0.95202621  0.79086368     0.05500
C1404       C  0.25652151  0.97371284  0.80546172    -0.03100
Br1405     Br  0.20806847  0.96273383  0.80351846    -0.02800
H1406       H  0.24718357  0.01951178  0.83562101     0.09400
H1407       H  0.33660218  0.94607226  0.77951156     0.07400
Br1408     Br  0.37382433  0.00867013  0.79811189    -0.03200
C1409       C  0.16173761  0.92809265  0.68217572    -0.09800
C1410       C  0.15637438  0.92009678  0.71743928     0.06400
C1411       C  0.13183109  0.93994388  0.73612447    -0.03600
C1412       C  0.11470952  0.96780333  0.71970155    -0.08000
C1413       C  0.12117567  0.97584200  0.68475104     0.05500
C1414       C  0.14473159  0.95544593  0.66600204    -0.03100
Br1415     Br  0.15765456  0.96577580  0.61905337    -0.02800
H1416       H  0.18008772  0.91342384  0.66674224     0.09400
H1417       H  0.09702218  0.98389057  0.73448235     0.07400
Br1418     Br  0.12137690  0.93151914  0.78388545    -0.03200
C1419       C  0.24817998  0.91223657  0.91046447    -0.09800
C1420       C  0.28317998  0.90665648  0.91963508     0.06400
C1421       C  0.30322712  0.88301336  0.90058086    -0.03600
C1422       C  0.28838609  0.86564104  0.87287736    -0.08000
C1423       C  0.25322931  0.87058390  0.86349323     0.05500
C1424       C  0.23304303  0.89455398  0.88253569    -0.03100
Br1425     Br  0.18478814  0.90347560  0.87309594    -0.02800
H1426       H  0.23235792  0.92976566  0.92569751     0.09400
H1427       H  0.30470551  0.84743619  0.85901248     0.07400
Br1428     Br  0.35006416  0.87052858  0.91314030    -0.03200
C1429       C  0.15132863  0.75736670  0.94848161    -0.09800
C1430       C  0.14607853  0.72181273  0.95540380     0.06400
C1431       C  0.16030392  0.69714456  0.93227698    -0.03600
C1432       C  0.17652289  0.70833925  0.90211418    -0.08000
C1433       C  0.18166235  0.74368892  0.89527840     0.05500
C1434       C  0.16969015  0.76833955  0.91915745    -0.03100
Br1435     Br  0.17614488  0.81704231  0.91215433    -0.02800
H1436       H  0.14090155  0.77682865  0.96578258     0.09400
H1437       H  0.18598078  0.68905464  0.88404700     0.07400
Br1438     Br  0.16197735  0.64793586  0.94097832    -0.03200
C1439       C  0.81141794  0.45074496  0.70143971    -0.09800
C1440       C  0.77725849  0.43874055  0.70031857     0.06400
C1441       C  0.75378824  0.45160589  0.67571625    -0.03600
C1442       C  0.76562688  0.47489385  0.65074544    -0.08000
C1443       C  0.80033686  0.48644055  0.65117669     0.05500
C1444       C  0.82303090  0.47495419  0.67773468    -0.03100
Br1445     Br  0.86912951  0.49277806  0.68582718    -0.02800
H1446       H  0.82936815  0.44067802  0.72069855     0.09400
H1447       H  0.74751234  0.48494921  0.63169503     0.07400
Br1448     Br  0.70579039  0.43813254  0.67569784    -0.03200
C1449       C  0.62699273  0.43150801  0.77199250    -0.09800
C1450       C  0.66116860  0.42078965  0.78042235     0.06400
C1451       C  0.68018980  0.44289989  0.80319557    -0.03600
C1452       C  0.66493817  0.47282855  0.81764230    -0.08000
C1453       C  0.63060805  0.48268981  0.81028673     0.05500
C1454       C  0.61181449  0.46186844  0.78661769    -0.03100
Br1455     Br  0.56554333  0.47455030  0.77309288    -0.02800
H1456       H  0.61180042  0.41611244  0.75429353     0.09400
H1457       H  0.68043445  0.48907742  0.83451310     0.07400
Br1458     Br  0.72842067  0.43608227  0.81437448    -0.03200
C1459       C  0.56550374  0.34560445  0.84357642    -0.09800
C1460       C  0.57630338  0.34215221  0.80929354     0.06400
C1461       C  0.56055866  0.36184343  0.78307663    -0.03600
C1462       C  0.53612248  0.38703034  0.79200766    -0.08000
C1463       C  0.52661532  0.39199516  0.82676677     0.05500
C1464       C  0.54023184  0.36965278  0.85247781    -0.03100
Br1465     Br  0.52441471  0.36858033  0.89968796    -0.02800
H1466       H  0.57745955  0.32993208  0.86367799     0.09400
H1467       H  0.52465920  0.40291900  0.77183766     0.07400
Br1468     Br  0.57272595  0.35623377  0.73533480    -0.03200
C1469       C  0.58276286  0.23595054  0.70189291    -0.09800
C1470       C  0.59766205  0.26774221  0.69121935     0.06400
C1471       C  0.58093522  0.28580930  0.66384272    -0.03600
C1472       C  0.54986196  0.27271915  0.64913343    -0.08000
C1473       C  0.53537125  0.24099073  0.66010987     0.05500
C1474       C  0.55253797  0.22252786  0.68658683    -0.03100
Br1475     Br  0.53531828  0.17896266  0.70362064    -0.02800
H1476       H  0.59476372  0.22099733  0.72245365     0.09400
H1477       H  0.53733106  0.28704854  0.62844262     0.07400
Br1478     Br  0.59992839  0.32721911  0.64388868    -0.03200
C1479       C  0.64045968  0.20272717  0.56640754    -0.09800
C1480       C  0.63163971  0.23101566  0.54513970     0.06400
C1481       C  0.64137105  0.26476941  0.55558600    -0.03600
C1482       C  0.66045468  0.26922715  0.58613208    -0.08000
C1483       C  0.66835331  0.24081003  0.60749879     0.05500
C1484       C  0.65725952  0.20735610  0.59777777    -0.03100
Br1485     Br  0.66398972  0.16631736  0.62550753    -0.02800
H1486       H  0.63412016  0.17647237  0.55874072     0.09400
H1487       H  0.66792562  0.29514438  0.59394977     0.07400
Br1488     Br  0.62714206  0.30589452  0.53125795    -0.03200
C1489       C  0.78800886  0.36452851  0.63414555    -0.09800
C1490       C  0.75128734  0.36346161  0.63553024     0.06400
C1491       C  0.73278905  0.38053934  0.60893747    -0.03600
C1492       C  0.75115358  0.39803285  0.58232015    -0.08000
C1493       C  0.78811822  0.39828237  0.58090749     0.05500
C1494       C  0.80622547  0.38119950  0.60774888    -0.03100
Br1495     Br  0.85590188  0.37486774  0.60840801    -0.02800
H1496       H  0.80335900  0.35092242  0.65336610     0.09400
H1497       H  0.73637397  0.41019872  0.56173925     0.07400
Br1498     Br  0.68309162  0.37754417  0.60553993    -0.03200
C1499       C  0.80426712  0.12599168  0.64807389    -0.09800
C1500       C  0.82246696  0.11076299  0.67565063     0.06400
C1501       C  0.81506411  0.12107834  0.70981946    -0.03600
C1502       C  0.78907449  0.14583842  0.71574923    -0.08000
C1503       C  0.77124935  0.16097136  0.68787340     0.05500
C1504       C  0.77927778  0.15109598  0.65383503    -0.03100
Br1505     Br  0.75696979  0.17086013  0.61384839    -0.02800
H1506       H  0.80863972  0.11756805  0.62171131     0.09400
H1507       H  0.78384241  0.15439600  0.74187732     0.07400
Br1508     Br  0.84069548  0.10310266  0.74858978    -0.03200
C1509       C  0.65473393  0.17187538  0.80881642    -0.09800
C1510       C  0.69094488  0.17788139  0.80757969     0.06400
C1511       C  0.71290515  0.15217362  0.82208335    -0.03600
C1512       C  0.69847078  0.12185527  0.83711963    -0.08000
C1513       C  0.66211560  0.11595429  0.83794039     0.05500
C1514       C  0.64037756  0.14171807  0.82316987    -0.03100
Br1515     Br  0.59082638  0.13657092  0.81809938    -0.02800
H1516       H  0.63695528  0.19065960  0.79764805     0.09400
H1517       H  0.71589264  0.10252300  0.84788802     0.07400
Br1518     Br  0.76260588  0.15568069  0.82012818    -0.03200
C1519       C  0.90242074  0.34487816  0.83804832    -0.09800
C1520       C  0.90989103  0.38027130  0.84336494     0.06400
C1521       C  0.89213542  0.40553359  0.82345880    -0.03600
C1522       C  0.86641435  0.39520761  0.80067361    -0.08000
C1523       C  0.85848723  0.36016048  0.79612369     0.05500
C1524       C  0.87721501  0.33464307  0.81416278    -0.03100
Br1525     Br  0.86896524  0.28603567  0.80760761    -0.02800
H1526       H  0.91680216  0.32511364  0.85202270     0.09400
H1527       H  0.85220709  0.41486198  0.78629066     0.07400
Br1528     Br  0.90299402  0.45427574  0.82278363    -0.03200
C1529       C  0.88996138  0.20183547  0.71714599    -0.09800
C1530       C  0.90358789  0.21524990  0.68592442     0.06400
C1531       C  0.88540436  0.24281450  0.67012054    -0.03600
C1532       C  0.85440031  0.25570043  0.68465472    -0.08000
C1533       C  0.84018996  0.24237207  0.71576396     0.05500
C1534       C  0.85885375  0.21509246  0.73207753    -0.03100
Br1535     Br  0.84362729  0.19517974  0.77485472    -0.02800
H1536       H  0.90369560  0.18097769  0.73012713     0.09400
H1537       H  0.84153797  0.27693924  0.67140057     0.07400
Br1538     Br  0.90297713  0.26532904  0.62940098    -0.03200
C1539       C  0.78199098  0.37881011  0.90770071    -0.09800
C1540       C  0.81555582  0.36913185  0.91755243     0.06400
C1541       C  0.82983520  0.33842399  0.90343934    -0.03600
C1542       C  0.81168189  0.31984606  0.87756709    -0.03800
C1543       C  0.77830856  0.33040695  0.86686257     0.05500
C1544       C  0.76289989  0.35920938  0.88416367    -0.03100
Br1545     Br  0.71445093  0.37182197  0.88025948    -0.02800
H1546       H  0.76946352  0.40051624  0.92047268     0.09400
H1547       H  0.82353252  0.29720545  0.86606089     0.07400
Br1548     Br  0.87319759  0.32042191  0.92013679    -0.03200
C1549       C  0.68565973  0.20653403  0.93365970    -0.09800
C1550       C  0.65362610  0.20939318  0.95076666     0.06400
C1551       C  0.62846577  0.23328315  0.93891552    -0.03600
C1552       C  0.63415731  0.25138760  0.90843432    -0.08000
C1553       C  0.66541195  0.24752541  0.89055010     0.05500
C1554       C  0.69193221  0.22606336  0.90379566    -0.03100
Br1555     Br  0.73674627  0.22310173  0.88233146    -0.02800
H1556       H  0.70559341  0.18921015  0.94350179     0.09400
H1557       H  0.61424881  0.26889923  0.89879767     0.07400
Br1558     Br  0.58681383  0.24380795  0.96437103    -0.03200
C1559       C  0.69302681  0.47749321  0.19014469    -0.09800
C1560       C  0.67507091  0.44681533  0.18171982     0.06400
C1561       C  0.64306310  0.44950274  0.16371011    -0.03600
C1562       C  0.62848744  0.48188970  0.15779466    -0.08000
C1563       C  0.64684918  0.51245087  0.16494781     0.05500
C1564       C  0.67996008  0.51005083  0.18067242    -0.03100
Br1565     Br  0.71046523  0.54915286  0.18623559    -0.02800
H1566       H  0.71841598  0.47617927  0.20234932     0.09400
H1567       H  0.60316535  0.48308956  0.14558950     0.07400
Br1568     Br  0.61890594  0.41160282  0.14203292    -0.03200
C1569       C  0.79225678  0.46797364  0.31121814    -0.09800
C1570       C  0.78318264  0.47201105  0.34602167     0.06400
C1571       C  0.75686312  0.45093346  0.36017017    -0.03600
C1572       C  0.74130872  0.42502931  0.33977565    -0.08000
C1573       C  0.75106315  0.42054959  0.30496094     0.05500
C1574       C  0.77632936  0.44304648  0.29063021    -0.03100
Br1575     Br  0.78927168  0.44281166  0.24260897    -0.02800
H1576       H  0.81110295  0.48537749  0.29960574     0.09400
H1577       H  0.72216629  0.40795412  0.35132956     0.07400
Br1578     Br  0.74120994  0.45725995  0.40676903    -0.03200
C1579       C  0.77532787  0.33741783  0.41898217    -0.09800
C1580       C  0.78717034  0.35242169  0.38797772     0.06400
C1581       C  0.80906132  0.38193129  0.39021682    -0.03600
C1582       C  0.81500371  0.39755275  0.42219327    -0.08000
C1583       C  0.80408320  0.38210325  0.45337292     0.05500
C1584       C  0.78497290  0.35071761  0.45129428    -0.03100
Br1585     Br  0.77525059  0.32139823  0.49039125    -0.02800
H1586       H  0.76024733  0.31370612  0.41828514     0.09400
H1587       H  0.82978633  0.42142236  0.42251418     0.07400
Br1588     Br  0.83569924  0.40062760  0.35234729    -0.03200
C1589       C  0.65632784  0.23873390  0.36458734    -0.09800
C1590       C  0.65877291  0.27519060  0.36196581     0.06400
C1591       C  0.64264893  0.29551160  0.38754642    -0.03600
C1592       C  0.62455597  0.27915477  0.41467845    -0.08000
C1593       C  0.62260769  0.24259271  0.41719990     0.05500
C1594       C  0.63859695  0.22245777  0.39141618    -0.03100
Br1595     Br  0.64104276  0.17263405  0.39279462    -0.02800
H1596       H  0.66914986  0.22222796  0.34588234     0.09400
H1597       H  0.61317606  0.29505115  0.43480068     0.07400
Br1598     Br  0.64757481  0.34499002  0.38876713    -0.03200
C1599       C  0.66393647  0.15497078  0.17004650    -0.09800
C1600       C  0.65998130  0.15890233  0.20587102     0.06400
C1601       C  0.64891615  0.13038210  0.22599812    -0.03600
C1602       C  0.64065015  0.09907139  0.20977516    -0.08000
C1603       C  0.64354095  0.09580045  0.17380408     0.05500
C1604       C  0.65635283  0.12348703  0.15407496    -0.03100
Br1605     Br  0.66466498  0.11840628  0.10551164    -0.02800
H1606       H  0.67292520  0.17640528  0.15449042     0.09400
H1607       H  0.63080919  0.07762371  0.22505586     0.07400
Br1608     Br  0.64154232  0.13362945  0.27504092    -0.03200
C1609       C  0.80555108  0.17216633  0.25850006    -0.09800
C1610       C  0.78282729  0.19040811  0.28045061     0.06400
C1611       C  0.78267650  0.18177643  0.31628403    -0.03600
C1612       C  0.80399998  0.15538034  0.32871499    -0.08000
C1613       C  0.82523652  0.13601723  0.30666122     0.05500
C1614       C  0.82632489  0.14490326  0.27119677    -0.03100
Br1615     Br  0.85557358  0.12070360  0.23907600    -0.02800
H1616       H  0.80675099  0.17866885  0.23125811     0.09400
H1617       H  0.80225115  0.14846843  0.35585084     0.07400
Br1618     Br  0.75379104  0.20317923  0.35103945    -0.03200
C1619       C  0.79350710  0.34071352  0.09144827    -0.09800
C1620       C  0.76540495  0.36144067  0.10194807     0.06400
C1621       C  0.75616408  0.39090449  0.08254284    -0.03600
C1622       C  0.77497960  0.39936096  0.05296673    -0.08000
C1623       C  0.80331323  0.37898429  0.04251437     0.05500
C1624       C  0.81253851  0.34932918  0.06175975    -0.03100
Br1625     Br  0.85199744  0.32142233  0.04955057    -0.02800
H1626       H  0.80118479  0.31846210  0.10684012     0.09400
H1627       H  0.76774374  0.42221224  0.03821368     0.07400
Br1628     Br  0.71885108  0.42109524  0.09623526    -0.03200
C1629       C  0.65494454  0.24475165  0.12214647    -0.09800
C1630       C  0.69039048  0.24178506  0.13121797     0.06400
C1631       C  0.71193467  0.21969967  0.11146905    -0.03600
C1632       C  0.69751985  0.20080909  0.08399455    -0.08000
C1633       C  0.66190843  0.20349663  0.07574451     0.05500
C1634       C  0.64076827  0.22624290  0.09477980    -0.03100
Br1635     Br  0.59312347  0.23592261  0.08276974    -0.02800
H1636       H  0.63778548  0.26186759  0.13633266     0.09400
H1637       H  0.71425118  0.18426614  0.06862356     0.07400
Br1638     Br  0.76098354  0.21490194  0.11965441    -0.03200
C1639       C  0.02882671  0.33667006  0.16257476    -0.09800
C1640       C  0.01395270  0.36989549  0.16478852     0.06400
C1641       C  0.02660250  0.39357321  0.18948993    -0.03600
C1642       C  0.05485311  0.38446471  0.21015296    -0.08000
C1643       C  0.07078131  0.35193703  0.20688071     0.05500
C1644       C  0.05730619  0.32760278  0.18335720    -0.03100
Br1645     Br  0.07869175  0.28313366  0.17665738    -0.02800
H1646       H  0.01892448  0.31819551  0.14394459     0.09400
H1647       H  0.06523501  0.40332869  0.22816135     0.07400
Br1648     Br  0.00615813  0.43854002  0.19655980    -0.03200
C1649       C  0.83861244  0.36819576  0.17913859    -0.09800
C1650       C  0.83329040  0.33205122  0.18045867     0.06400
C1651       C  0.85543540  0.31046754  0.16088071    -0.03600
C1652       C  0.88299669  0.32528171  0.14204063    -0.08000
C1653       C  0.88887534  0.36140619  0.14216795     0.05500
C1654       C  0.86578537  0.38287933  0.16053492    -0.03100
Br1655     Br  0.87210680  0.43211492  0.16543993    -0.02800
H1656       H  0.82200159  0.38558333  0.19365810     0.09400
H1657       H  0.90097402  0.30839341  0.12852872     0.07400
Br1658     Br  0.85120494  0.26088434  0.16080928    -0.03200
C1659       C  0.07585609  0.21124825  0.33239742    -0.09800
C1660       C  0.05041964  0.19692765  0.31108279     0.06400
C1661       C  0.05616599  0.19756545  0.27478567    -0.03600
C1662       C  0.08578644  0.21427766  0.26088199    -0.08000
C1663       C  0.10996610  0.23106830  0.28244023     0.05500
C1664       C  0.10477611  0.22832932  0.31895916    -0.03100
Br1665     Br  0.13374899  0.24837871  0.35417320    -0.02800
H1666       H  0.07206224  0.21140744  0.36015631     0.09400
H1667       H  0.08915778  0.21521857  0.23309590     0.07400
Br1668     Br  0.02467340  0.17594505  0.24291938    -0.03200
C1669       C  0.90818015  0.24005260  0.34578189    -0.09800
C1670       C  0.92308162  0.21764881  0.32137611     0.06400
C1671       C  0.90808878  0.21510429  0.28814383    -0.03600
C1672       C  0.87836013  0.23470885  0.28009654    -0.08000
C1673       C  0.86336507  0.25646732  0.30502151     0.05500
C1674       C  0.87841666  0.25900432  0.33801264    -0.03100
Br1675     Br  0.85909300  0.28791915  0.37358198    -0.02800
H1676       H  0.91965292  0.24264432  0.37125797     0.09400
H1677       H  0.86625276  0.23204532  0.25492172     0.07400
Br1678     Br  0.92570685  0.18371586  0.25397262    -0.03200
C1679       C  0.40404964  0.82796190  0.33173201    -0.09800
C1680       C  0.40990202  0.86425540  0.33233698     0.06400
C1681       C  0.38389485  0.88569467  0.31755042    -0.03600
C1682       C  0.35306297  0.87129007  0.30460212    -0.08000
C1683       C  0.34690855  0.83519029  0.30391286     0.05500
C1684       C  0.37328253  0.81342622  0.31748583    -0.03100
Br1685     Br  0.36969264  0.76390398  0.31553625    -0.02800
H1686       H  0.42360129  0.81067533  0.34230918     0.09400
H1687       H  0.33370906  0.88895571  0.29436009     0.07400
Br1688     Br  0.38968960  0.93474985  0.31037096    -0.03200
C1689       C  0.36435674  0.72535930  0.20685700    -0.09800
C1690       C  0.36429055  0.75864682  0.19217692     0.06400
C1691       C  0.39154247  0.76957400  0.17081599    -0.03600
C1692       C  0.41760167  0.74611852  0.16247154    -0.08000
C1693       C  0.41656211  0.71218599  0.17553768     0.05500
C1694       C  0.39064887  0.70199210  0.19869139    -0.03100
Br1695     Br  0.39059553  0.65653594  0.21876605    -0.02800
H1696       H  0.34354125  0.71739602  0.22392441     0.09400
H1697       H  0.43847638  0.75407404  0.14522525     0.07400
Br1698     Br  0.39275856  0.81525373  0.15095638    -0.03200
C1699       C  0.13675336  0.72913445  0.39456684    -0.09800
C1700       C  0.15610708  0.71095000  0.41904331     0.06400
C1701       C  0.19300349  0.71027187  0.41517154    -0.03600
C1702       C  0.20913313  0.72696260  0.38674008    -0.08000
C1703       C  0.18944839  0.74600829  0.36257263     0.05500
C1704       C  0.15250931  0.74726691  0.36762681    -0.03100
Br1705     Br  0.11969885  0.77431030  0.34121933    -0.02800
H1706       H  0.10880182  0.73133932  0.39780339     0.09400
H1707       H  0.23714287  0.72552528  0.38390436     0.07400
Br1708     Br  0.22279228  0.68606665  0.44709212    -0.03200
C1709       C  0.27632939  0.87578681  0.45168554    -0.09800
C1710       C  0.31249744  0.87068914  0.45253656     0.06400
C1711       C  0.32991418  0.85947874  0.42261507    -0.03600
C1712       C  0.31095294  0.85354987  0.39238430    -0.08000
C1713       C  0.27482525  0.85915243  0.39134334     0.05500
C1714       C  0.25749639  0.87053507  0.42128419    -0.03100
Br1715     Br  0.20914863  0.88324926  0.42096622    -0.02800
H1716       H  0.26296143  0.88555697  0.47434936     0.09400
H1717       H  0.32453530  0.84502890  0.36949411     0.07400
Br1718     Br  0.37937752  0.85231352  0.42184793    -0.03200
C1719       C  0.09948266  0.86889607  0.31507573    -0.09800
C1720       C  0.10472808  0.86616111  0.27906604     0.06400
C1721       C  0.07800266  0.87892432  0.25734521    -0.03600
C1722       C  0.04734161  0.89354094  0.27172281    -0.08000
C1723       C  0.04200979  0.89603167  0.30795206     0.05500
C1724       C  0.06900167  0.88308399  0.32948385    -0.03100
Br1725     Br  0.06519006  0.87985115  0.37893026    -0.02800
H1726       H  0.11915262  0.85902430  0.33261295     0.09400
H1727       H  0.02735276  0.90285107  0.25424899     0.07400
Br1728     Br  0.08084232  0.87497153  0.20801077    -0.03200
C1729       C  0.07407800  0.77155568  0.17193740    -0.09800
C1730       C  0.08274256  0.74931332  0.19926554     0.06400
C1731       C  0.06547205  0.71760127  0.20323820    -0.03600
C1732       C  0.04199009  0.70690969  0.17817271    -0.08000
C1733       C  0.03415677  0.72837760  0.14989926     0.05500
C1734       C  0.04911100  0.76164637  0.14764947    -0.03100
Br1735     Br  0.03587429  0.79417051  0.11236261    -0.02800
H1736       H  0.08726938  0.79619280  0.16918160     0.09400
H1737       H  0.02861574  0.68238722  0.18153634     0.07400
Br1738     Br  0.07228797  0.68896167  0.24327550    -0.03200
C1739       C  0.16759177  0.73753312  0.13013007    -0.09800
C1740       C  0.16202414  0.77365907  0.13433787     0.06400
C1741       C  0.13784814  0.78989427  0.11207451    -0.03600
C1742       C  0.12156504  0.77039616  0.08568984    -0.08000
C1743       C  0.12809342  0.73451027  0.08155647     0.05500
C1744       C  0.15117358  0.71824953  0.10449105    -0.03100
Br1745     Br  0.16467158  0.67046263  0.09971454    -0.02800
H1746       H  0.18552126  0.72363446  0.14674725     0.09400
H1747       H  0.10448860  0.78351624  0.06758423     0.07400
Br1748     Br  0.12667881  0.83817833  0.11573813    -0.03200
C1749       C  0.25972071  0.89731530  0.06152195    -0.09800
C1750       C  0.29219329  0.89432499  0.04528836     0.06400
C1751       C  0.31778388  0.87198806  0.05918688    -0.03600
C1752       C  0.31132667  0.85461122  0.08994043    -0.08000
C1753       C  0.27944293  0.85840330  0.10671411     0.05500
C1754       C  0.25314724  0.87927211  0.09221268    -0.03100
Br1755     Br  0.20879937  0.88482033  0.11398682    -0.02800
H1756       H  0.23988462  0.91418346  0.05073125     0.09400
H1757       H  0.33128007  0.83792638  0.10082506     0.07400
Br1758     Br  0.36168451  0.86330519  0.03695456    -0.03200
C1759       C  0.30103316  0.14823244  0.16546444    -0.09800
C1760       C  0.27840142  0.12349033  0.15141520     0.06400
C1761       C  0.24235076  0.13197902  0.15063701    -0.03600
C1762       C  0.22992281  0.16338051  0.16518991    -0.08000
C1763       C  0.25267868  0.18770731  0.18017851     0.05500
C1764       C  0.28897849  0.17965737  0.17935930    -0.03100
Br1765     Br  0.32503882  0.20960334  0.19661761    -0.02800
H1766       H  0.32868126  0.14274382  0.16652612     0.09400
H1767       H  0.20222367  0.16865296  0.16491455     0.07400
Br1768     Br  0.20885174  0.10295762  0.12815478    -0.03200
C1769       C  0.23243320  0.95034543  0.17304997    -0.09800
C1770       C  0.25505604  0.92969386  0.19316688     0.06400
C1771       C  0.29014500  0.94149388  0.19657791    -0.03600
C1772       C  0.30145972  0.97182157  0.17992176    -0.08000
C1773       C  0.27912840  0.99216775  0.15967592     0.05500
C1774       C  0.24403940  0.98110521  0.15652085    -0.03100
Br1775     Br  0.21116800  0.00586682  0.12852227    -0.02800
H1776       H  0.20555263  0.94251382  0.16997389     0.09400
H1777       H  0.32823529  0.97996850  0.18333865     0.07400
Br1778     Br  0.32553450  0.91855733  0.22345203    -0.03200
C1779       C  0.15292538  0.15067480  0.27669838    -0.09800
C1780       C  0.17397937  0.16374040  0.30329327     0.06400
C1781       C  0.16734573  0.15351102  0.33781966    -0.03600
C1782       C  0.14062599  0.13061074  0.34505047    -0.08000
C1783       C  0.11969572  0.11710572  0.31873131     0.05500
C1784       C  0.12578869  0.12753516  0.28418237    -0.03100
Br1785     Br  0.09733614  0.11164077  0.24664861    -0.02800
H1786       H  0.15658541  0.15961937  0.25036378     0.09400
H1787       H  0.13735753  0.12205496  0.37156356     0.07400
Br1788     Br  0.19371744  0.16935433  0.37705921    -0.03200
C1789       C  0.15562592  0.99374470  0.34084812    -0.09800
C1790       C  0.12508578  0.99593463  0.32105271     0.06400
C1791       C  0.12009223  0.97397925  0.29269152    -0.03600
C1792       C  0.14517534  0.94889160  0.28535053    -0.08000
C1793       C  0.17522434  0.94609348  0.30583697     0.05500
C1794       C  0.18072781  0.96892736  0.33341542    -0.03100
Br1795     Br  0.22121639  0.96607768  0.36239517    -0.02800
H1796       H  0.15985383  0.01146443  0.36217437     0.09400
H1797       H  0.14074360  0.93079635  0.26441541     0.07400
Br1798     Br  0.07919796  0.97701250  0.26443285    -0.03200
C1799       C  0.27765347  0.42465592  0.81501392    -0.09800
C1800       C  0.28218996  0.41985055  0.77900838     0.06400
C1801       C  0.30609719  0.44172256  0.76187075    -0.03600
C1802       C  0.32291244  0.46852947  0.78032453    -0.08000
C1803       C  0.31716535  0.47361875  0.81607760     0.05500
C1804       C  0.29477488  0.45064521  0.83338743    -0.03100
Br1805     Br  0.28376991  0.45497002  0.88166413    -0.02800
H1806       H  0.26021241  0.40807207  0.82950909     0.09400
H1807       H  0.34000959  0.48606166  0.76651205     0.07400
Br1808     Br  0.31625849  0.43695370  0.71360262    -0.03200
C1809       C  0.16622925  0.44839815  0.65596063    -0.09800
C1810       C  0.16703991  0.44808712  0.69221715     0.06400
C1811       C  0.16532225  0.47965211  0.71053835    -0.03600
C1812       C  0.16125713  0.51058684  0.69234348    -0.08000
C1813       C  0.15923095  0.51061493  0.65613405     0.05500
C1814       C  0.16306469  0.47947284  0.63783773    -0.03100
Br1815     Br  0.16414814  0.47861435  0.58824049    -0.02800
H1816       H  0.16768462  0.42440701  0.64172118     0.09400
H1817       H  0.15777066  0.53451410  0.70661124     0.07400
Br1818     Br  0.16451852  0.48218282  0.76021215    -0.03200
C1819       C  0.36521560  0.29607643  0.66276265    -0.09800
C1820       C  0.34092541  0.27457829  0.67974654     0.06400
C1821       C  0.34874260  0.23811414  0.68027065    -0.03600
C1822       C  0.37953714  0.22495731  0.66587779    -0.08000
C1823       C  0.40425885  0.24629841  0.65018479     0.05500
C1824       C  0.39630113  0.28233836  0.64802430    -0.03100
Br1825     Br  0.42619028  0.31377804  0.62373921    -0.02800
H1826       H  0.36037438  0.32372789  0.66133906     0.09400
H1827       H  0.38474101  0.19739056  0.66801623     0.07400
Br1828     Br  0.31988559  0.20245202  0.70012079    -0.03200
C1829       C  0.38370745  0.40390224  0.84703243    -0.09800
C1830       C  0.40431881  0.41744457  0.82049260     0.06400
C1831       C  0.39684687  0.40834422  0.78589638    -0.03600
C1832       C  0.37200784  0.38274502  0.77896989    -0.08000
C1833       C  0.35336449  0.36733449  0.80609060     0.05500
C1834       C  0.35840001  0.37944362  0.84031817    -0.03100
Br1835     Br  0.33331189  0.36322459  0.88037929    -0.02800
H1836       H  0.38891701  0.41020912  0.87381285     0.09400
H1837       H  0.36661977  0.37556303  0.75242682     0.07400
Br1838     Br  0.41969271  0.43039793  0.74759452    -0.03200
C1839       C  0.23853582  0.17250308  0.82644076    -0.09800
C1840       C  0.25962687  0.19619758  0.80848224     0.06400
C1841       C  0.29658507  0.19183482  0.81109314    -0.03600
C1842       C  0.31082615  0.16460284  0.83025876    -0.08000
C1843       C  0.28988522  0.13951335  0.84562642     0.05500
C1844       C  0.25320692  0.14399637  0.84417826    -0.03100
Br1845     Br  0.22177545  0.11133881  0.86487443    -0.02800
H1846       H  0.21048301  0.17512519  0.82531694     0.09400
H1847       H  0.33885854  0.16130644  0.83053602     0.07400
Br1848     Br  0.33135203  0.21919861  0.78791208    -0.03200
C1849       C  0.17697445  0.14883629  0.65269663    -0.09800
C1850       C  0.17619842  0.16287076  0.68602283     0.06400
C1851       C  0.15846593  0.14533882  0.71260267    -0.03600
C1852       C  0.14015479  0.11490327  0.70503211    -0.08000
C1853       C  0.13978710  0.10151653  0.67126213     0.05500
C1854       C  0.15959785  0.11807066  0.64526577    -0.03100
Br1855     Br  0.16552537  0.09914990  0.59964492    -0.02800
H1856       H  0.19139071  0.16184225  0.63236061     0.09400
H1857       H  0.12550845  0.10212764  0.72531454     0.07400
Br1858     Br  0.15681110  0.16319892  0.75882383    -0.03200
C1859       C  0.05900925  0.23128235  0.66346868    -0.09800
C1860       C  0.03586560  0.21530729  0.68647938     0.06400
C1861       C  0.04602714  0.21359170  0.72179891    -0.03600
C1862       C  0.07777625  0.22875533  0.73317752    -0.08000
C1863       C  0.10056918  0.24560832  0.70996555     0.05500
C1864       C  0.09070132  0.24564610  0.67436096    -0.03100
Br1865     Br  0.11908311  0.26319444  0.63742214    -0.02800
H1866       H  0.05228143  0.23284775  0.63628877     0.09400
H1867       H  0.08455312  0.22739703  0.76033580     0.07400
Br1868     Br  0.01875527  0.18889187  0.75522282    -0.03200
C1869       C  0.07213876  0.33983768  0.81480663    -0.09800
C1870       C  0.07890767  0.36329572  0.78790649     0.06400
C1871       C  0.06207830  0.39555677  0.78680759    -0.03600
C1872       C  0.03905267  0.40437939  0.81289327    -0.08000
C1873       C  0.03246875  0.38125880  0.84010698     0.05500
C1874       C  0.04859254  0.34854338  0.84081067    -0.03100
Br1875     Br  0.03958260  0.31578982  0.87703904    -0.02800
H1876       H  0.08631707  0.31554378  0.81638766     0.09400
H1877       H  0.02558982  0.42909291  0.81155855     0.07400
Br1878     Br  0.07092856  0.42877081  0.75077193    -0.03200
C1879       C  0.26184894  0.21361848  0.06603268    -0.09800
C1880       C  0.29482404  0.21725323  0.05103141     0.06400
C1881       C  0.31531063  0.24653381  0.05863770    -0.03600
C1882       C  0.30401416  0.26997462  0.08339311    -0.08000
C1883       C  0.27201738  0.26536012  0.09988834     0.05500
C1884       C  0.25025172  0.23763562  0.09040736    -0.03100
Br1885     Br  0.20527734  0.23089269  0.11064223    -0.02800
H1886       H  0.24531529  0.19203111  0.05889835     0.09400
H1887       H  0.32092134  0.29115334  0.09084616     0.07400
Br1888     Br  0.35835901  0.25644139  0.03531538    -0.03200
C1889       C  0.32406415  0.22496027  0.91443303    -0.09800
C1890       C  0.29772583  0.20497105  0.92945180     0.06400
C1891       C  0.26294501  0.20977499  0.91856231    -0.03600
C1892       C  0.25493317  0.23577760  0.89452371    -0.08000
C1893       C  0.28136561  0.25645680  0.88051060     0.05500
C1894       C  0.31636248  0.25017432  0.89005665    -0.03100
Br1895     Br  0.35544980  0.27499557  0.87120610    -0.02800
H1896       H  0.35082339  0.22223219  0.92291587     0.09400
H1897       H  0.22832232  0.23885966  0.88569757     0.07400
Br1898     Br  0.22587240  0.18094403  0.93513983    -0.03200
C1899       C  0.17062268  0.32132841  0.09358950    -0.09800
C1900       C  0.15569466  0.33418781  0.12431414     0.06400
C1901       C  0.13123500  0.36151038  0.11986307    -0.03600
C1902       C  0.11729604  0.36934869  0.08737919    -0.08000
C1903       C  0.13386051  0.35927742  0.05663023     0.05500
C1904       C  0.16221981  0.33540914  0.06057374    -0.03100
Br1905     Br  0.19530185  0.32530897  0.02470334    -0.02800
H1906       H  0.19198432  0.30319498  0.09545224     0.09400
H1907       H  0.09549633  0.38707221  0.08671687     0.07400
Br1908     Br  0.12409195  0.39849312  0.15149618    -0.03200
C1909       C  0.14275476  0.38420705  0.90051614    -0.09800
C1910       C  0.12731598  0.36147105  0.92428814     0.06400
C1911       C  0.12618198  0.32570177  0.91498625    -0.03600
C1912       C  0.14064366  0.31396663  0.88320667    -0.08000
C1913       C  0.15711914  0.33689111  0.85993418     0.05500
C1914       C  0.15755682  0.37273396  0.86937211    -0.03100
Br1915     Br  0.17846742  0.40907994  0.84225114    -0.02800
H1916       H  0.14463134  0.41151443  0.90682236     0.09400
H1917       H  0.13953167  0.28660073  0.87703032     0.07400
Br1918     Br  0.10405904  0.29147726  0.94362188    -0.03200
C1919       C  0.54884211  0.36537674  0.18143405    -0.09800
C1920       C  0.54383769  0.40014666  0.19029824     0.06400
C1921       C  0.56608056  0.41552217  0.21483363    -0.03600
C1922       C  0.59395109  0.39635433  0.22888639    -0.08000
C1923       C  0.60012106  0.36186718  0.21858646     0.05500
C1924       C  0.57652362  0.34626109  0.19504069    -0.03100
Br1925     Br  0.57977411  0.29892480  0.17989260    -0.02800
H1926       H  0.53110488  0.35305539  0.16345914     0.09400
H1927       H  0.61170000  0.40893380  0.24663317     0.07400
Br1928     Br  0.55975046  0.46270711  0.22900278    -0.03200
C1929       C  0.39528271  0.39541936  0.15021792    -0.09800
C1930       C  0.41573335  0.40385571  0.17924325     0.06400
C1931       C  0.40436152  0.39282881  0.21230627    -0.03600
C1932       C  0.37432434  0.37242148  0.21526358    -0.08000
C1933       C  0.35441349  0.36409203  0.18600370     0.05500
C1934       C  0.36469344  0.37652538  0.15338227    -0.03100
Br1935     Br  0.33939772  0.36682033  0.11158555    -0.02800
H1936       H  0.40355923  0.40255017  0.12441316     0.09400
H1937       H  0.36588497  0.36388119  0.24062799     0.07400
Br1938     Br  0.42674799  0.40674223  0.25448845    -0.03200
C1939       C  0.52998116  0.25969132  0.33489081    -0.09800
C1940       C  0.51490340  0.22694210  0.32948246     0.06400
C1941       C  0.52919676  0.20462737  0.30434462    -0.03600
C1942       C  0.55952779  0.21400962  0.28710681    -0.08000
C1943       C  0.57536296  0.24595052  0.29346707     0.05500
C1944       C  0.55998873  0.26945918  0.31667550    -0.03100
Br1945     Br  0.57890674  0.31484763  0.32375364    -0.02800
H1946       H  0.51855367  0.27746406  0.35335866     0.09400
H1947       H  0.57092696  0.19619642  0.26861946     0.07400
Br1948     Br  0.50750088  0.16175338  0.29115823    -0.03200
C1949       C  0.34212196  0.23558850  0.29791153    -0.09800
C1950       C  0.33488299  0.27117448  0.30334525     0.06400
C1951       C  0.35462101  0.28864506  0.32875298    -0.03600
C1952       C  0.38100952  0.27070246  0.34707174    -0.08000
C1953       C  0.38807341  0.23520151  0.34102539     0.05500
C1954       C  0.36798679  0.21783284  0.31614701    -0.03100
Br1955     Br  0.37678040  0.17055699  0.30308897    -0.02800
H1956       H  0.32758971  0.22094714  0.27891538     0.09400
H1957       H  0.39683986  0.28480531  0.36546569     0.07400
Br1958     Br  0.34787522  0.33690100  0.33864493    -0.03200
C1959       C  0.30419682  0.43695403  0.22489820    -0.09800
C1960       C  0.26945037  0.42822988  0.21677445     0.06400
C1961       C  0.25103002  0.45115270  0.19437228    -0.03600
C1962       C  0.26729572  0.48049438  0.18000599    -0.08000
C1963       C  0.30208583  0.48854366  0.18720241     0.05500
C1964       C  0.32035743  0.46673658  0.21042024    -0.03100
Br1965     Br  0.36714124  0.47761649  0.22352108    -0.02800
H1966       H  0.31908311  0.42025236  0.24194374     0.09400
H1967       H  0.25244432  0.49745136  0.16313829     0.07400
Br1968     Br  0.20270442  0.44528156  0.18318001    -0.03200
C1969       C  0.29508334  0.64534570  0.16531922    -0.09800
C1970       C  0.30764282  0.61968088  0.18786411     0.06400
C1971       C  0.30681444  0.62742311  0.22389628    -0.03600
C1972       C  0.29400298  0.65983958  0.23605613    -0.08000
C1973       C  0.28085999  0.68534013  0.21328662     0.05500
C1974       C  0.28166298  0.67714972  0.17723185    -0.03100
Br1975     Br  0.26485169  0.70735770  0.14123277    -0.02800
H1976       H  0.29475089  0.64026223  0.13778030     0.09400
H1977       H  0.29396359  0.66489899  0.26358796     0.07400
Br1978     Br  0.32484368  0.59581546  0.25795606    -0.03200
C1979       C  0.11989937  0.44141697  0.31250735    -0.09800
C1980       C  0.15441663  0.43220703  0.30620300     0.06400
C1981       C  0.18176183  0.44942201  0.32312465    -0.03600
C1982       C  0.17385285  0.47589139  0.34631645    -0.08000
C1983       C  0.13915990  0.48627828  0.35126238     0.05500
C1984       C  0.11199896  0.46882124  0.33389897    -0.03100
Br1985     Br  0.06419504  0.48399728  0.33275712    -0.02800
H1986       H  0.09889363  0.42836175  0.29904660     0.09400
H1987       H  0.19481803  0.49002199  0.35864269     0.07400
Br1988     Br  0.22982731  0.43871792  0.31481915    -0.03200
C1989       C  0.13637000  0.60894150  0.29327131    -0.09800
C1990       C  0.14139874  0.60863931  0.32916357     0.06400
C1991       C  0.16275726  0.63327196  0.34482605    -0.03600
C1992       C  0.17504714  0.66093677  0.32536582    -0.08000
C1993       C  0.16737301  0.66326662  0.29006675     0.05500
C1994       C  0.15001826  0.63587705  0.27336405    -0.03100
Br1995     Br  0.14383726  0.63437977  0.22408456    -0.02800
H1996       H  0.12186797  0.58830265  0.28090098     0.09400
H1997       H  0.19039445  0.68076559  0.33769799     0.07400
Br1998     Br  0.17661049  0.62826269  0.39214979    -0.03200
C1999       C  0.13823947  0.37652612  0.40368173    -0.09800
C2000       C  0.16066901  0.39426573  0.42593409     0.06400
C2001       C  0.19621586  0.39664325  0.41617557    -0.03600
C2002       C  0.20847861  0.38081488  0.38543193    -0.08000
C2003       C  0.18615122  0.36181738  0.36366003     0.05500
C2004       C  0.15022381  0.36027704  0.37347530    -0.03100
Br2005     Br  0.11436808  0.33640991  0.34832654    -0.02800
H2006       H  0.11100917  0.37408526  0.41058632     0.09400
H2007       H  0.23580829  0.38289265  0.37890707     0.07400
Br2008     Br  0.22910753  0.42206787  0.44340995    -0.03200
C2009       C  0.16008587  0.34927389  0.60524056    -0.09800
C2010       C  0.19210740  0.36094587  0.61903554     0.06400
C2011       C  0.21040873  0.38636266  0.59970996    -0.03600
C2012       C  0.19631900  0.39942173  0.56834443    -0.08000
C2013       C  0.16358050  0.38848680  0.55590687     0.05500
C2014       C  0.14607169  0.36242161  0.57440488    -0.03100
Br2015     Br  0.10338587  0.34260951  0.55777981    -0.02800
H2016       H  0.14519988  0.32980027  0.61876291     0.09400
H2017       H  0.21049030  0.41912353  0.55417073     0.07400
Br2018     Br  0.25309571  0.40630552  0.61575410    -0.03200
C2019       C  0.29727655  0.27050842  0.39504382    -0.09800
C2020       C  0.28447583  0.24263532  0.37565200     0.06400
C2021       C  0.29807389  0.20899404  0.38149111    -0.03600
C2022       C  0.32165936  0.20348205  0.40795517    -0.08000
C2023       C  0.33331658  0.23079779  0.42877024     0.05500
C2024       C  0.32225935  0.26501155  0.42087024    -0.03100
Br2025     Br  0.34103764  0.30520740  0.44347871    -0.02800
H2026       H  0.28861175  0.29668991  0.38941978     0.09400
H2027       H  0.32901067  0.17692790  0.41344263     0.07400
Br2028     Br  0.28476383  0.16813298  0.35611249    -0.03200
C2029       C  0.31802991  0.26297095  0.56568453    -0.09800
C2030       C  0.31733290  0.22933990  0.55206213     0.06400
C2031       C  0.29135287  0.20574970  0.56245052    -0.03600
C2032       C  0.26865823  0.21493385  0.58859962    -0.08000
C2033       C  0.27044663  0.24778624  0.60342327     0.05500
C2034       C  0.29426582  0.27254019  0.59112501    -0.03100
Br2035     Br  0.29566395  0.31903124  0.60840333    -0.02800
H2036       H  0.33697686  0.28163440  0.55647889     0.09400
H2037       H  0.24976466  0.19618367  0.59780891     0.07400
Br2038     Br  0.28423070  0.16141453  0.54091306    -0.03200
loop_ 
_geom_bond_atom_site_label_1 
_geom_bond_atom_site_label_2 
_geom_bond_distance 
_geom_bond_site_symmetry_2 
_ccdc_geom_bond_type 
C1            C2   1.390       .  A
C1            C6   1.394       .  A
C1         C2030   1.454       .  S
C2            C3   1.397       .  A
C2            H7   1.083       .  S
C3            C4   1.412       .  A
C3         C2023   1.483       .  S
C4            C5   1.404       .  A
C4            H8   1.082       .  S
C5            C6   1.393       .  A
C5         C1007   1.470       .  S
C6            H9   1.085       .  S
C10          C11   1.411       .  A
C10          C15   1.425       .  A
C10        C2000   1.513       .  S
C11          C12   1.406       .  A
C11          H16   1.083       .  S
C12          C13   1.416       .  A
C12        C2013   1.503       .  S
C13          C14   1.417       .  A
C13          H17   1.083       .  S
C14          C15   1.421       .  A
C14         C905   1.519       .  S
C15          H18   1.083       .  S
C19          C20   1.393       .  A
C19          C24   1.388       .  A
C19        C1983   1.455       .  S
C20          C21   1.402       .  A
C20          H25   1.085       .  S
C21          C22   1.401       .  A
C21         C928   1.465       .  S
C22          C23   1.402       .  A
C22          H26   1.084       .  S
C23          C24   1.386       .  A
C23        C1990   1.449       .  S
C24          H27   1.085       .  S
C28          C29   1.418       .  A
C28          C33   1.410       .  A
C28        C1963   1.507       .  S
C29          C30   1.421       .  A
C29          H34   1.083       .  S
C30          C31   1.424       .  A
C30         C962   1.525       .  S
C31          C32   1.427       .  A
C31          H35   1.083       .  S
C32          C33   1.412       .  A
C32        C1970   1.526       .  S
C33          H36   1.083       .  S
C37          C38   1.399       .  A
C37          C42   1.395       .  A
C37        C1940   1.475       .  S
C38          C39   1.404       .  A
C38          H43   1.084       .  S
C39          C40   1.421       .  A
C39        C1030   1.501       .  S
C40          C41   1.425       .  A
C40          H44   1.083       .  S
C41          C42   1.402       .  A
C41        C1953   1.495       .  S
C42          H45   1.085       .  S
C46          C47   1.399       .  A
C46          C51   1.402       .  A
C46        C1930   1.491       .  S
C47          C48   1.401       .  A
C47          H52   1.082       .  S
C48          C49   1.416       .  A
C48        C1920   1.478       .  S
C49          C50   1.412       .  A
C49          H53   1.073       .  S
C50          C51   1.405       .  A
C50         C950   1.491       .  S
C51          H54   1.085       .  S
C55          C56   1.415       .  A
C55          C60   1.427       .  A
C55        C1910   1.525       .  S
C56          C57   1.415   1_556  A
C56          H61   1.073       .  S
C57          C58   1.429       .  A
C57        C1903   1.536       .  S
C58          C59   1.412   1_554  A
C58          H62   1.080       .  S
C59          C60   1.419       .  A
C59         C618   1.526       .  S
C60          H63   1.083       .  S
C64          C65   1.394       .  A
C64          C69   1.407       .  A
C64        C1890   1.473       .  S
C65          C66   1.389   1_556  A
C65          H70   1.085       .  S
C66          C67   1.400       .  A
C66        C1880   1.459       .  S
C67          C68   1.400   1_554  A
C67          H71   1.084       .  S
C68          C69   1.406       .  A
C68         C651   1.474       .  S
C69          H72   1.083       .  S
O73         C100   1.266       .  A
O73         Mn99   2.078       .  S
C74        C2033   1.440       .  S
C74         O107   1.261       .  A
C74         O104   1.266       .  A
O75         Mn82   2.188       .  S
O75         Mn93   2.097       .  S
O75         Mn97   2.178       .  S
O75         Mn99   2.111       .  S
O76          C86   1.272       .  A
O76        Mn110   2.099       .  S
O77         C100   1.261       .  A
O77         Mn93   2.049       .  S
O78         C105   1.267       .  A
O78         Mn97   2.200       .  S
O79        Mn110   1.950       .  S
O79         Mn99   1.971       .  S
O79          C95   1.217       .  S
C80        C1840   1.504       .  S
C80          O83   1.271       .  A
C80         O106   1.210       .  S
O81        Mn101   2.079       .  S
O81         Mn82   2.175       .  S
O81        Mn115   2.093       .  S
O81         Mn97   2.178       .  S
Mn82        O111   2.217       .  S
Mn82         O87   2.169       .  S
Mn82        O114   2.175       .  S
Mn82         O88   2.173       .  S
O83         Mn97   2.173       .  S
O84          C86   1.269       .  A
O84         Mn91   2.078       .  S
C85        C1820   1.528       .  S
C85         O111   1.272       .  A
C85          O98   1.229       .  A
C86        C1850   1.462       .  S
O87         C112   1.268       .  A
O88         Mn91   2.098       .  S
O88        Mn110   2.109       .  S
O88         Mn97   2.174       .  S
O89         Mn93   1.942       .  S
O89        Mn115   1.935       .  S
O89         C112   1.216       .  S
C90        C1893   1.460       .  S
C90         O116   1.258       .  A
C90          O92   1.271       .  A
Mn91        O104   2.080       .  S
Mn91         O98   2.014       .  S
Mn91        O106   1.976       .  S
O92        Mn115   2.097       .  S
Mn93        O109   2.054       .  S
Mn93        O103   1.936       .  S
O94          C96   1.274       .  A
O94         Mn99   2.099       .  S
C95        C1863   1.523       .  S
C95         O113   1.270       .  A
C96        C1810   1.463       .  S
C96         O109   1.265       .  A
Mn97        O113   2.185       .  S
O98        Mn101   2.024       .  S
Mn99        O117   1.940       .  S
C100       C1870   1.439       .  S
Mn101       O108   2.106       .  S
Mn101       O116   2.056       .  S
Mn101       O106   1.961       .  S
C102       C1833   1.464       .  S
C102        O108   1.274       .  A
C102        O118   1.258       .  A
O103       Mn115   1.932       .  S
O103        C105   1.208       .  S
C105       C1913   1.525       .  S
O107       Mn110   2.058       .  S
Mn110       O117   1.949       .  S
C112       C1800   1.506       .  S
O114        C119   1.266       .  A
Mn115       O118   2.040       .  S
O117        C119   1.218       .  S
C119       C2010   1.518       .  S
C120        C121   1.390       .  A
C120        C125   1.394       .  A
C120       C1790   1.455   1_545  S
C121        C122   1.396       .  A
C121        H126   1.085       .  S
C122        C123   1.411       .  A
C122       C1783   1.477       .  S
C123        C124   1.404       .  A
C123        H127   1.082       .  S
C124        C125   1.398       .  A
C124        C573   1.474       .  S
C125        H128   1.084   1_545  S
C129        C130   1.420       .  A
C129        C134   1.411       .  A
C129       C1773   1.513   1_545  S
C130        C131   1.417       .  A
C130        H135   1.083   1_545  S
C131        C132   1.419       .  A
C131        C663   1.521       .  S
C132        C133   1.425       .  A
C132        H136   1.083       .  S
C133        C134   1.414       .  A
C133       C1760   1.519       .  S
C134        H137   1.083       .  S
O138        C165   1.265       .  A
O138       Mn164   2.070       .  S
C139       C1993   1.452       .  S
C139        O172   1.264       .  A
C139        O169   1.271       .  A
O140       Mn147   2.185       .  S
O140       Mn158   2.111       .  S
O140       Mn162   2.183       .  S
O140       Mn164   2.093       .  S
O141        C151   1.264       .  A
O141       Mn175   2.067       .  S
O142        C165   1.268       .  A
O142       Mn158   2.081       .  S
O143        C170   1.267       .  A
O143       Mn162   2.181       .  S
O144       Mn175   1.907       .  S
O144       Mn164   1.926       .  S
O144        C160   1.204       .  S
C145       C1720   1.516       .  S
C145        O148   1.264       .  A
C145        O171   1.218       .  S
O146       Mn166   2.105       .  S
O146       Mn147   2.200       .  S
O146       Mn180   2.114       .  S
O146       Mn162   2.188       .  S
Mn147       O176   2.202       .  S
Mn147       O152   2.180       .  S
Mn147       O179   2.202       .  S
Mn147       O153   2.184       .  S
O148       Mn162   2.166       .  S
O149        C151   1.266       .  A
O149       Mn156   2.077       .  S
C150       C1703   1.508       .  S
C150        O176   1.268       .  A
C150        O163   1.200       .  S
C151       C1730   1.446       .  S
O152        C177   1.268       .  A
O153       Mn156   2.091       .  S
O153       Mn175   2.109       .  S
O153       Mn162   2.190       .  S
O154       Mn158   1.946       .  S
O154       Mn180   1.941       .  S
O154        C177   1.217       .  S
C155       C1793   1.445       .  S
C155        O181   1.264       .  A
C155        O157   1.268       .  A
Mn156       O169   2.092       .  S
Mn156       O171   1.966       .  S
Mn156       O163   1.923       .  S
O157       Mn180   2.082       .  S
Mn158       O174   2.061       .  S
Mn158       O168   1.942       .  S
O159        C161   1.265       .  A
O159       Mn164   2.062       .  S
C160       C1740   1.505       .  S
C160        O178   1.262       .  A
C161       C1690   1.438       .  S
C161        O174   1.264       .  A
Mn162       O178   2.190       .  S
O163       Mn166   1.930       .  S
Mn164       O182   1.948       .  S
C165       C1753   1.450       .  S
Mn166       O173   2.092       .  S
Mn166       O181   2.057       .  S
Mn166       O171   1.956       .  S
C167       C1713   1.468       .  S
C167        O173   1.272       .  A
C167        O183   1.268       .  A
O168       Mn180   1.954       .  S
O168        C170   1.213       .  S
C170       C1770   1.519       .  S
O172       Mn175   2.057       .  S
Mn175       O182   1.946       .  S
C177       C1683   1.515       .  S
O179        C184   1.271       .  A
Mn180       O183   2.080       .  S
O182        C184   1.212       .  S
C184       C1973   1.528       .  S
C185        C186   1.399       .  A
C185        C190   1.400       .  A
C185       C1670   1.477       .  S
C186        C187   1.404   1_655  A
C186        H191   1.083       .  S
C187        C188   1.424       .  A
C187       C1660   1.501       .  S
C188        C189   1.415   1_455  A
C188        H192   1.081       .  S
C189        C190   1.399       .  A
C189        C596   1.494       .  S
C190        H193   1.084       .  S
C194        C195   1.413       .  A
C194        C199   1.400       .  A
C194       C1653   1.482       .  S
C195        C196   1.410       .  A
C195        H200   1.083       .  S
C196        C197   1.404       .  A
C196        C606   1.485       .  S
C197        C198   1.400       .  A
C197        H201   1.084   1_655  S
C198        C199   1.394       .  A
C198       C1640   1.472   1_655  S
C199        H202   1.085       .  S
O203        C230   1.268       .  A
O203       Mn229   2.081       .  S
C204       C1943   1.460       .  S
C204        O237   1.269       .  A
C204        O234   1.267       .  A
O205       Mn212   2.175       .  S
O205       Mn223   2.099       .  S
O205       Mn227   2.169       .  S
O205       Mn229   2.093       .  S
O206        C216   1.269       .  A
O206       Mn240   2.075       .  S
O207        C230   1.270       .  A
O207       Mn223   2.090       .  S
O208        C235   1.254       .  A
O208       Mn227   2.129       .  S
O209       Mn240   1.958       .  S
O209       Mn229   1.940       .  S
O209        C225   1.210       .  S
C210       C1630   1.484       .  S
C210        O213   1.253       .  A
C210        O236   1.213       .  S
O211       Mn231   2.103       .  S
O211       Mn212   2.170       .  S
O211       Mn245   2.108       .  S
O211       Mn227   2.174       .  S
Mn212       O241   2.132       .  S
Mn212       O217   2.124       .  S
Mn212       O244   2.153       .  S
Mn212       O218   2.172       .  S
O213       Mn227   2.121       .  S
O214        C216   1.273       .  A
O214       Mn221   2.096       .  S
C215       C1923   1.488       .  S
C215        O241   1.259       .  A
C215        O228   1.216       .  S
C216       C1600   1.469       .  S
O217        C242   1.257       .  A
O218       Mn221   2.110       .  S
O218       Mn240   2.100       .  S
O218       Mn227   2.171       .  S
O219       Mn223   1.950       .  S
O219       Mn245   1.962       .  S
O219        C242   1.215       .  S
C220       C1620   1.459       .  S
C220        O246   1.269       .  A
C220        O222   1.267       .  A
Mn221       O234   2.085       .  S
Mn221       O236   1.938       .  S
Mn221       O228   1.960       .  S
O222       Mn245   2.082       .  S
Mn223       O239   2.087       .  S
Mn223       O233   1.948       .  S
O224        C226   1.274       .  A
O224       Mn229   2.094       .  S
C225       C1610   1.489       .  S
C225        O243   1.257       .  A
C226       C1580   1.492       .  S
C226        O239   1.268       .  A
Mn227       O243   2.133       .  S
O228       Mn231   1.957       .  S
Mn229       O247   1.947       .  S
C230       C1673   1.459       .  S
Mn231       O238   2.076       .  S
Mn231       O246   2.090       .  S
Mn231       O236   1.946       .  S
C232       C1560   1.479       .  S
C232        O238   1.267       .  A
C232        O248   1.271       .  A
O233       Mn245   1.931       .  S
O233        C235   1.213       .  S
C235       C1650   1.488       .  S
O237       Mn240   2.092       .  S
Mn240       O247   1.934       .  S
C242       C1573   1.481       .  S
O244        C249   1.256       .  A
Mn245       O248   2.080       .  S
O247        C249   1.207       .  S
C249       C1590   1.489       .  S
C250        C251   1.390   1_556  A
C250        C255   1.395       .  A
C250       C1550   1.463       .  S
C251        C252   1.398       .  A
C251        H256   1.085       .  S
C252        C253   1.414       .  A
C252       C1633   1.475       .  S
C253        C254   1.406       .  A
C253        H257   1.083       .  S
C254        C255   1.402   1_554  A
C254        C652   1.481       .  S
C255        H258   1.084       .  S
C259        C260   1.395       .  A
C259        C264   1.392   1_554  A
C259       C1623   1.470       .  S
C260        C261   1.404   1_554  A
C260        H265   1.084       .  S
C261        C262   1.422       .  A
C261        C629   1.498       .  S
C262        C263   1.424       .  A
C262        H266   1.083       .  S
C263        C264   1.400       .  A
C263       C1540   1.487       .  S
C264        H267   1.085       .  S
C268        C269   1.422       .  A
C268        C273   1.414       .  A
C268       C1530   1.514       .  S
C269        C270   1.421       .  A
C269        H274   1.083       .  S
C270        C271   1.417   1_655  A
C270        C597   1.521       .  S
C271        C272   1.422       .  A
C271        H275   1.083       .  S
C272        C273   1.416   1_455  A
C272       C1860   1.520       .  S
C273        H276   1.083       .  S
C277        C278   1.396       .  A
C277        C282   1.389   1_455  A
C277       C1873   1.455       .  S
C278        C279   1.400   1_455  A
C278        H283   1.084       .  S
C279        C280   1.402       .  A
C279        C641   1.468       .  S
C280        C281   1.403       .  A
C280        H284   1.083       .  S
C281        C282   1.394       .  A
C281       C1520   1.471       .  S
C282        H285   1.085       .  S
O286        C313   1.266       .  A
O286       Mn312   2.058       .  S
C287       C1460   1.445       .  S
C287        O320   1.265       .  A
C287        O317   1.267       .  A
O288       Mn295   2.178       .  S
O288       Mn306   2.102       .  S
O288       Mn310   2.175       .  S
O288       Mn312   2.096       .  S
O289        C299   1.264       .  A
O289       Mn323   2.070       .  S
O290        C313   1.268       .  A
O290       Mn306   2.079       .  S
O291        C318   1.267       .  A
O291       Mn310   2.184       .  S
O292       Mn323   2.004       .  S
O292       Mn312   1.994       .  S
O292        C308   1.232       .  A
C293       C1510   1.512       .  S
C293        O296   1.264       .  A
C293        O319   1.217       .  S
O294       Mn314   2.108       .  S
O294       Mn295   2.185       .  S
O294       Mn328   2.101       .  S
O294       Mn310   2.182       .  S
Mn295       O324   2.156       .  S
Mn295       O300   2.184       .  S
Mn295       O327   2.205       .  S
Mn295       O301   2.177       .  S
O296       Mn310   2.170       .  S
O297        C299   1.268       .  A
O297       Mn304   2.083       .  S
C298       C1470   1.514       .  S
C298        O324   1.266       .  A
C298        O311   1.222       .  S
C299       C1553   1.450       .  S
O300        C325   1.266       .  A
O301       Mn304   2.120       .  S
O301       Mn323   2.102       .  S
O301       Mn310   2.191       .  S
O302       Mn306   1.936       .  S
O302       Mn328   1.940       .  S
O302        C325   1.211       .  S
C303       C1503   1.452       .  S
C303        O329   1.270       .  A
C303        O305   1.263       .  A
Mn304       O317   2.077       .  S
Mn304       O319   1.940       .  S
Mn304       O311   1.963       .  S
O305       Mn328   2.048       .  S
Mn306       O322   2.056       .  S
Mn306       O316   1.943       .  S
O307        C309   1.262       .  A
O307       Mn312   2.069       .  S
C308       C1543   1.499       .  S
C308        O326   1.268       .  A
C309       C1440   1.438       .  S
C309        O322   1.262       .  A
Mn310       O326   2.186       .  S
O311       Mn314   1.955       .  S
Mn312       O330   1.960       .  S
C313       C1523   1.451       .  S
Mn314       O321   2.071       .  S
Mn314       O329   2.092       .  S
Mn314       O319   1.948       .  S
C315       C1483   1.467       .  S
C315        O321   1.267       .  A
C315        O331   1.272       .  A
O316       Mn328   1.949       .  S
O316        C318   1.216       .  S
C318       C1533   1.524       .  S
O320       Mn323   2.053       .  S
Mn323       O330   1.966       .  S
C325       C1490   1.508       .  S
O327        C332   1.269       .  A
Mn328       O331   2.090       .  S
O330        C332   1.213       .  S
C332       C1450   1.530       .  S
C333        C334   1.400       .  A
C333        C338   1.398   1_556  A
C333       C1430   1.488       .  S
C334        C335   1.404   1_556  A
C334        H339   1.082       .  S
C335        C336   1.417       .  A
C335        C617   1.497       .  S
C336        C337   1.422       .  A
C336        H340   1.083       .  S
C337        C338   1.400       .  A
C337       C1743   1.489       .  S
C338        H341   1.084       .  S
C342        C343   1.393   1_554  A
C342        C347   1.393       .  A
C342       C1750   1.464       .  S
C343        C344   1.400       .  A
C343        H348   1.085       .  S
C344        C345   1.411       .  A
C344       C1420   1.472       .  S
C345        C346   1.406       .  A
C345        H349   1.084       .  S
C346        C347   1.398   1_556  A
C346        C686   1.476       .  S
C347        H350   1.084       .  S
C351        C352   1.412       .  A
C351        C356   1.402       .  A
C351       C1413   1.475   1_545  S
C352        C353   1.407       .  A
C352        H357   1.084   1_545  S
C353        C354   1.403       .  A
C353        C572   1.483       .  S
C354        C355   1.398       .  A
C354        H358   1.084       .  S
C355        C356   1.396       .  A
C355       C1853   1.477       .  S
C356        H359   1.085       .  S
C360        C361   1.394       .  A
C360        C365   1.399       .  A
C360       C1400   1.476       .  S
C361        C362   1.401       .  A
C361        H366   1.084       .  S
C362        C363   1.425       .  A
C362       C1843   1.495       .  S
C363        C364   1.419       .  A
C363        H367   1.082       .  S
C364        C365   1.400       .  A
C364        C674   1.497       .  S
C365        H368   1.084       .  S
O369        C396   1.272       .  A
O369       Mn395   2.088       .  S
C370       C1433   1.471       .  S
C370        O403   1.272       .  A
C370        O400   1.265       .  A
O371       Mn378   2.171       .  S
O371       Mn389   2.097       .  S
O371       Mn393   2.162       .  S
O371       Mn395   2.097       .  S
O372        C382   1.270       .  A
O372       Mn406   2.090       .  S
O373        C396   1.271       .  A
O373       Mn389   2.092       .  S
O374        C401   1.253       .  A
O374       Mn393   2.121       .  S
O375       Mn406   1.943       .  S
O375       Mn395   1.962       .  S
O375        C391   1.217       .  S
C376       C1320   1.471       .  S
C376        O379   1.255       .  A
C376        O402   1.238       .  A
O377       Mn397   2.096       .  S
O377       Mn378   2.170       .  S
O377       Mn411   2.098       .  S
O377       Mn393   2.163       .  S
Mn378       O407   2.125       .  S
Mn378       O383   2.146       .  S
Mn378       O410   2.124       .  S
Mn378       O384   2.180       .  S
O379       Mn393   2.118       .  S
O380        C382   1.269       .  A
O380       Mn387   2.088       .  S
C381       C1380   1.487       .  S
C381        O407   1.254       .  A
C381        O394   1.214       .  S
C382       C1330   1.467       .  S
O383        C408   1.256       .  A
O384       Mn387   2.095       .  S
O384       Mn406   2.108       .  S
O384       Mn393   2.169       .  S
O385       Mn389   1.948       .  S
O385       Mn411   1.932       .  S
O385        C408   1.210       .  S
C386       C1370   1.480       .  S
C386        O412   1.268       .  A
C386        O388   1.272       .  A
Mn387       O400   2.069       .  S
Mn387       O402   2.023       .  S
Mn387       O394   1.954       .  S
O388       Mn411   2.078       .  S
Mn389       O405   2.086       .  S
Mn389       O399   1.942       .  S
O390        C392   1.270       .  A
O390       Mn395   2.086       .  S
C391       C1340   1.490       .  S
C391        O409   1.253       .  A
C392       C1403   1.464       .  S
C392        O405   1.270       .  A
Mn393       O409   2.117       .  S
O394       Mn397   1.972       .  S
Mn395       O413   1.943       .  S
C396       C1350   1.468       .  S
Mn397       O404   2.085       .  S
Mn397       O412   2.081       .  S
Mn397       O402   2.018       .  S
C398       C1390   1.466       .  S
C398        O404   1.270       .  A
C398        O414   1.270       .  A
O399       Mn411   1.962       .  S
O399        C401   1.214       .  S
C401       C1363   1.489       .  S
O403       Mn406   2.102       .  S
Mn406       O413   1.951       .  S
C408       C1410   1.490       .  S
O410        C415   1.254       .  A
Mn411       O414   2.090       .  S
O413        C415   1.214       .  S
C415       C1423   1.485       .  S
C416        C417   1.389       .  A
C416        C421   1.397       .  A
C416       C1310   1.462       .  S
C417        C418   1.392   1_655  A
C417        H422   1.086       .  S
C418        C419   1.405       .  A
C418       C1733   1.461       .  S
C419        C420   1.404   1_455  A
C419        H423   1.084       .  S
C420        C421   1.401       .  A
C420        C607   1.473       .  S
C421        H424   1.084       .  S
C425        C426   1.410       .  A
C425        C430   1.418       .  A
C425       C1300   1.507       .  S
C426        C427   1.415   1_655  A
C426        H431   1.083       .  S
C427        C428   1.427       .  A
C427       C1723   1.527       .  S
C428        C429   1.422   1_455  A
C428        H432   1.081       .  S
C429        C430   1.415       .  A
C429        C561   1.523       .  S
C430        H433   1.084       .  S
C434        C435   1.406       .  A
C434        C439   1.400       .  A
C434       C1293   1.495       .  S
C435        C436   1.394       .  A
C435        H440   1.082       .  S
C436        C437   1.405       .  A
C436        C584   1.483       .  S
C437        C438   1.416       .  A
C437        H441   1.084       .  S
C438        C439   1.406       .  A
C438       C1613   1.484       .  S
C439        H442   1.078       .  S
C443        C444   1.399       .  A
C443        C448   1.426       .  A
C443       C1283   1.491   1_545  S
C444        C445   1.391       .  A
C444        H449   1.085       .  S
C445        C446   1.398       .  A
C445       C1603   1.467       .  S
C446        C447   1.403       .  A
C446        H450   1.084       .  S
C447        C448   1.422       .  A
C447        C662   1.501       .  S
C448        H451   1.083   1_545  S
O452        C479   1.257       .  A
O452       Mn478   2.033       .  S
C453       C1313   1.444       .  S
C453        O486   1.265       .  A
C453        O483   1.263       .  A
O454       Mn461   2.180       .  S
O454       Mn472   2.089       .  S
O454       Mn476   2.184       .  S
O454       Mn478   2.078       .  S
O455        C465   1.264       .  A
O455       Mn489   2.060       .  S
O456        C479   1.273       .  A
O456       Mn472   2.109       .  S
O457        C484   1.263       .  A
O457       Mn476   2.197       .  S
O458       Mn489   1.952       .  S
O458       Mn478   1.950       .  S
O458        C474   1.212       .  S
C459       C1250   1.517       .  S
C459        O462   1.269       .  A
C459        O485   1.220       .  S
O460       Mn480   2.116       .  S
O460       Mn461   2.187       .  S
O460       Mn494   2.104       .  S
O460       Mn476   2.180       .  S
Mn461       O490   2.178       .  S
Mn461       O466   2.175       .  S
Mn461       O493   2.214       .  S
Mn461       O467   2.187       .  S
O462       Mn476   2.172       .  S
O463        C465   1.271       .  A
O463       Mn470   2.106       .  S
C464       C1303   1.518       .  S
C464        O490   1.267       .  A
C464        O477   1.215       .  S
C465       C1200   1.461       .  S
O466        C491   1.270       .  A
O467       Mn470   2.098       .  S
O467       Mn489   2.104       .  S
O467       Mn476   2.180       .  S
O468       Mn472   1.941       .  S
O468       Mn494   1.949       .  S
O468        C491   1.211       .  S
C469       C1240   1.436       .  S
C469        O495   1.264       .  A
C469        O471   1.265       .  A
Mn470       O483   2.071       .  S
Mn470       O485   1.957       .  S
Mn470       O477   1.956       .  S
O471       Mn494   2.056       .  S
Mn472       O488   2.048       .  S
Mn472       O482   1.933       .  S
O473        C475   1.273       .  A
O473       Mn478   2.096       .  S
C474       C1213   1.499       .  S
C474        O492   1.265       .  A
C475       C1260   1.462       .  S
C475        O488   1.259       .  A
Mn476       O492   2.171       .  S
O477       Mn480   1.933       .  S
Mn478       O496   2.000       .  S
C479       C1220   1.459       .  S
Mn480       O487   2.093       .  S
Mn480       O495   2.063       .  S
Mn480       O485   1.972       .  S
C481       C1290   1.485       .  S
C481        O487   1.271       .  A
C481        O497   1.271       .  A
O482       Mn494   1.943       .  S
O482        C484   1.208       .  S
C484       C1233   1.521       .  S
O486       Mn489   2.066       .  S
Mn489       O496   1.997       .  S
C491       C1280   1.506       .  S
O493        C498   1.269       .  A
Mn494       O497   2.080       .  S
O496        C498   1.225       .  A
C498       C1270   1.522       .  S
C499        C500   1.409       .  A
C499        C504   1.395       .  A
C499       C1263   1.476       .  S
C500        C501   1.405       .  A
C500        H505   1.083       .  S
C501        C502   1.397   1_554  A
C501        C687   1.468   1_554  S
C502        C503   1.395       .  A
C502        H506   1.084       .  S
C503        C504   1.386   1_556  A
C503       C1190   1.452       .  S
C504        H507   1.084       .  S
C508        C509   1.409   1_556  A
C508        C513   1.415       .  A
C508       C1180   1.508       .  S
C509        C510   1.413       .  A
C509        H514   1.083       .  S
C510        C511   1.427       .  A
C510       C1273   1.517       .  S
C511        C512   1.423       .  A
C511        H515   1.083       .  S
C512        C513   1.414   1_554  A
C512        C628   1.520       .  S
C513        H516   1.083       .  S
C517        C518   1.399       .  A
C517        C522   1.392       .  A
C517       C1500   1.469       .  S
C518        C519   1.399       .  A
C518        H523   1.084       .  S
C519        C520   1.406       .  A
C519        C583   1.477       .  S
C520        C521   1.411       .  A
C520        H524   1.083   1_545  S
C521        C522   1.395       .  A
C521       C1170   1.476   1_545  S
C522        H525   1.084       .  S
C526        C527   1.416       .  A
C526        C531   1.415       .  A
C526       C1513   1.515       .  S
C527        C528   1.411       .  A
C527        H532   1.082       .  S
C528        C529   1.420       .  A
C528        C673   1.517       .  S
C529        C530   1.427       .  A
C529        H533   1.083   1_545  S
C530        C531   1.415       .  A
C530       C1163   1.525   1_545  S
C531        H534   1.082       .  S
C535        C536   1.398       .  A
C535        C540   1.398       .  A
C535       C1393   1.480   1_655  S
C536        C537   1.405       .  A
C536        H541   1.084       .  S
C537        C538   1.423       .  A
C537       C1150   1.502       .  S
C538        C539   1.419       .  A
C538        H542   1.082       .  S
C539        C540   1.400       .  A
C539        C562   1.494       .  S
C540        H543   1.084   1_655  S
C544        C545   1.401       .  A
C544        C549   1.393       .  A
C544       C1140   1.471       .  S
C545        C546   1.403       .  A
C545        H550   1.084       .  S
C546        C547   1.409   1_655  A
C546        C642   1.482       .  S
C547        C548   1.411       .  A
C547        H551   1.084       .  S
C548        C549   1.399   1_455  A
C548       C1383   1.478       .  S
C549        H552   1.085       .  S
N553        N554   1.331       .  A
N553        N559   1.316       .  A
N553       Mn582   2.257   1_565  S
N554        C561   1.364       .  A
N555        N557   1.313       .  A
N555        N556   1.321       .  A
N555       Mn571   2.213   1_665  S
N556        C562   1.358       .  A
N557        N558   1.327       .  A
N557       Mn582   2.212   1_565  S
N558        C562   1.354       .  A
N559        N560   1.330       .  A
N559       Mn571   2.249   1_665  S
N560        C561   1.360       .  A
N563        N569   1.318       .  A
N563        N564   1.316       .  A
N563       Mn593   2.196       .  S
N564        C572   1.350       .  A
N565        N566   1.318       .  A
N565        N567   1.318       .  A
N565       Mn571   2.188       .  S
N566        C573   1.349       .  A
N567        N568   1.322       .  A
N567       Mn593   2.206       .  S
N568        C573   1.351       .  A
N569        N570   1.327       .  A
N569       Mn571   2.227       .  S
N570        C572   1.357       .  A
Mn571      Cl595   2.549   1_455  S
N574        N575   1.322       .  A
N574        N580   1.319       .  A
N574       Mn582   2.206       .  S
N575        C583   1.350       .  A
N576        N578   1.317       .  A
N576        N577   1.326       .  A
N576       Mn594   2.212       .  S
N577        C584   1.353       .  A
N578        N579   1.317       .  A
N578       Mn582   2.203       .  S
N579        C584   1.354       .  A
N580        N581   1.319       .  A
N580       Mn594   2.201       .  S
N581        C583   1.351       .  A
Mn582      Cl595   2.551       .  S
N585        N586   1.327   1_655  A
N585        N591   1.314       .  A
N585       Mn593   2.210   1_655  S
N586        C596   1.354   1_455  A
N587        N588   1.330       .  A
N587        N589   1.314       .  A
N587       Mn594   2.241       .  S
N588        C597   1.360       .  A
N589        N590   1.330   1_655  A
N589       Mn593   2.251   1_655  S
N590        C597   1.364   1_455  A
N591        N592   1.321       .  A
N591       Mn594   2.214       .  S
N592        C596   1.356       .  A
Mn593      Cl595   2.549   1_455  S
Mn594      Cl595   2.549       .  S
N598        N599   1.325       .  A
N598        N604   1.318       .  A
N598       Mn627   2.225       .  S
N599        C606   1.355       .  A
N600        N602   1.319       .  A
N600        N601   1.321       .  A
N600       Mn616   2.204   1_655  S
N601        C607   1.350       .  A
N602        N603   1.318       .  A
N602       Mn627   2.190       .  S
N603        C607   1.349       .  A
N604        N605   1.319       .  A
N604       Mn616   2.208   1_655  S
N605        C606   1.353       .  A
N608        N614   1.313   1_556  A
N608        N609   1.318       .  A
N608       Mn638   2.204       .  S
N609        C617   1.355   1_556  A
N610        N611   1.330       .  A
N610        N612   1.315   1_554  A
N610       Mn616   2.256       .  S
N611        C618   1.365   1_554  A
N612        N613   1.331       .  A
N612       Mn638   2.248       .  S
N613        C618   1.361       .  A
N614        N615   1.330       .  A
N614       Mn616   2.223       .  S
N615        C617   1.358       .  A
Mn616      Cl640   2.555   1_454  S
N619        N620   1.331       .  A
N619        N625   1.315   1_554  A
N619       Mn627   2.246       .  S
N620        C628   1.361       .  A
N621        N623   1.314   1_556  A
N621        N622   1.330       .  A
N621       Mn639   2.222       .  S
N622        C629   1.358       .  A
N623        N624   1.318       .  A
N623       Mn627   2.211       .  S
N624        C629   1.356   1_554  A
N625        N626   1.328       .  A
N625       Mn639   2.251       .  S
N626        C628   1.363   1_556  A
Mn627      Cl640   2.547   1_554  S
N630        N631   1.316   1_655  A
N630        N636   1.318       .  A
N630       Mn638   2.178   1_655  S
N631        C641   1.347   1_455  A
N632        N633   1.320       .  A
N632        N634   1.318       .  A
N632       Mn639   2.208       .  S
N633        C642   1.354       .  A
N634        N635   1.323   1_655  A
N634       Mn638   2.216   1_655  S
N635        C642   1.354   1_455  A
N636        N637   1.321       .  A
N636       Mn639   2.206       .  S
N637        C641   1.351       .  A
Mn638      Cl640   2.546   1_455  S
Mn639      Cl640   2.554       .  S
N643        N644   1.319       .  A
N643        N649   1.318   1_556  A
N643       Mn672   2.199       .  S
N644        C651   1.349       .  A
N645        N647   1.318   1_554  A
N645        N646   1.327       .  A
N645       Mn661   2.227       .  S
N646        C652   1.357       .  A
N647        N648   1.315       .  A
N647       Mn672   2.189       .  S
N648        C652   1.349   1_556  A
N649        N650   1.321       .  A
N649       Mn661   2.202       .  S
N650        C651   1.352   1_554  A
N653        N659   1.313       .  A
N653        N654   1.329       .  A
N653       Mn683   2.219       .  S
N654        C662   1.357       .  A
N655        N656   1.330       .  A
N655        N657   1.315       .  A
N655       Mn661   2.250       .  S
N656        C663   1.362       .  A
N657        N658   1.330       .  A
N657       Mn683   2.247       .  S
N658        C663   1.362       .  A
N659        N660   1.322       .  A
N659       Mn661   2.225       .  S
N660        C662   1.358       .  A
Mn661      Cl685   2.552   1_554  S
N664        N665   1.329       .  A
N664        N670   1.314       .  A
N664       Mn672   2.248       .  S
N665        C673   1.363       .  A
N666        N668   1.313       .  A
N666        N667   1.321       .  A
N666       Mn684   2.220       .  S
N667        C674   1.358       .  A
N668        N669   1.328       .  A
N668       Mn672   2.214       .  S
N669        C674   1.355       .  A
N670        N671   1.329       .  A
N670       Mn684   2.235       .  S
N671        C673   1.360       .  A
Mn672      Cl685   2.545       .  S
N675        N676   1.315       .  A
N675        N681   1.317   1_554  A
N675       Mn683   2.193   1_565  S
N676        C686   1.350   1_554  A
N677        N678   1.320       .  A
N677        N679   1.319   1_556  A
N677       Mn684   2.196   1_565  S
N678        C687   1.350       .  A
N679        N680   1.319       .  A
N679       Mn683   2.199   1_565  S
N680        C687   1.349   1_554  A
N681        N682   1.324       .  A
N681       Mn684   2.207   1_565  S
N682        C686   1.354       .  A
Mn683      Cl685   2.544   1_554  S
Mn684      Cl685   2.555       .  S
O688        C715   1.270       .  A
O688       Mn714   2.080       .  S
C689       C1193   1.443       .  S
C689        O722   1.264       .  A
C689        O719   1.264       .  A
O690       Mn697   2.174       .  S
O690       Mn708   2.110       .  S
O690       Mn712   2.177       .  S
O690       Mn714   2.111       .  S
O691        C701   1.270       .  A
O691       Mn725   2.087       .  S
O692        C715   1.253       .  A
O692       Mn708   2.021       .  S
O693        C720   1.263       .  A
O693       Mn712   2.174       .  S
O694       Mn725   1.955       .  S
O694       Mn714   1.976       .  S
O694        C710   1.222       .  S
C695       C1100   1.507       .  S
C695        O698   1.265       .  A
C695        O721   1.215       .  S
O696       Mn716   2.093       .  S
O696       Mn697   2.187       .  S
O696       Mn730   2.097       .  S
O696       Mn712   2.168       .  S
Mn697       O726   2.197       .  S
Mn697       O702   2.178       .  S
Mn697       O729   2.182       .  S
Mn697       O703   2.187       .  S
O698       Mn712   2.163       .  S
O699        C701   1.272       .  A
O699       Mn706   2.082       .  S
C700       C1160   1.523       .  S
C700        O726   1.265       .  A
C700        O713   1.206       .  S
C701       C1110   1.487       .  S
O702        C727   1.269       .  A
O703       Mn706   2.100       .  S
O703       Mn725   2.129       .  S
O703       Mn712   2.175       .  S
O704       Mn708   1.933       .  S
O704       Mn730   1.940       .  S
O704        C727   1.212       .  S
C705       C1133   1.463       .  S
C705        O731   1.260       .  A
C705        O707   1.275       .  A
Mn706       O719   2.062       .  S
Mn706       O721   1.953       .  S
Mn706       O713   1.947       .  S
O707       Mn730   2.104       .  S
Mn708       O724   2.089       .  S
Mn708       O718   1.959       .  S
O709        C711   1.272       .  A
O709       Mn714   2.085       .  S
C710       C1080   1.516       .  S
C710        O728   1.261       .  A
C711       C1143   1.468       .  S
C711        O724   1.273       .  A
Mn712       O728   2.148       .  S
O713       Mn716   1.934       .  S
Mn714       O732   1.951       .  S
C715       C1093   1.460       .  S
Mn716       O723   2.110       .  S
Mn716       O731   2.042       .  S
Mn716       O721   1.941       .  S
C717       C1173   1.460       .  S
C717        O723   1.275       .  A
C717        O733   1.258       .  A
O718       Mn730   1.947       .  S
O718        C720   1.215       .  S
C720       C1120   1.516       .  S
O722       Mn725   2.074       .  S
Mn725       O732   1.950       .  S
C727       C1153   1.504       .  S
O729        C734   1.270       .  A
Mn730       O733   2.040       .  S
O732        C734   1.220       .  S
C734       C1183   1.521       .  S
C735        C736   1.400       .  A
C735        C740   1.412       .  A
C735       C1360   1.480       .  S
C736        C737   1.395       .  A
C736        H741   1.085       .  S
C737        C738   1.396       .  A
C737       C1710   1.470       .  S
C738        C739   1.403       .  A
C738        H742   1.084       .  S
C739        C740   1.409       .  A
C739       C1006   1.481       .  S
C740        H743   1.084       .  S
C744        C745   1.396       .  A
C744        C749   1.400       .  A
C744       C1373   1.485       .  S
C745        C746   1.401       .  A
C745        H750   1.079       .  S
C746        C747   1.432       .  A
C746       C1700   1.501       .  S
C747        C748   1.421       .  A
C747        H751   1.083       .  S
C748        C749   1.398       .  A
C748        C940   1.503       .  S
C749        H752   1.083       .  S
C753        C754   1.404       .  A
C753        C758   1.405       .  A
C753       C1583   1.502       .  S
C754        C755   1.408       .  A
C754        H759   1.079       .  S
C755        C756   1.426       .  A
C755       C1493   1.509       .  S
C756        C757   1.416       .  A
C756        H760   1.082       .  S
C757        C758   1.404       .  A
C757        C906   1.502       .  S
C758        H761   1.082       .  S
C762        C763   1.398       .  A
C762        C767   1.399       .  A
C762       C1480   1.484       .  S
C763        C764   1.404       .  A
C763        H768   1.083       .  S
C764        C765   1.417       .  A
C764       C1593   1.487       .  S
C765        C766   1.409       .  A
C765        H769   1.083       .  S
C766        C767   1.398       .  A
C766       C1018   1.485       .  S
C767        H770   1.083       .  S
C771        C772   1.387       .  A
C771        C776   1.393       .  A
C771       C1243   1.452       .  S
C772        C773   1.395       .  A
C772        H777   1.084       .  S
C773        C774   1.410       .  A
C773       C1130   1.478       .  S
C774        C775   1.405       .  A
C774        H778   1.083       .  S
C775        C776   1.393       .  A
C775       C1017   1.467       .  S
C776        H779   1.085       .  S
C780        C781   1.412       .  A
C780        C785   1.427       .  A
C780       C1123   1.513       .  S
C781        C782   1.411       .  A
C781        H786   1.083       .  S
C782        C783   1.418       .  A
C782       C1253   1.516       .  S
C783        C784   1.413       .  A
C783        H787   1.083       .  S
C784        C785   1.426       .  A
C784        C941   1.523       .  S
C785        H788   1.083       .  S
C789        C790   1.397       .  A
C789        C794   1.408       .  A
C789       C1830   1.474       .  S
C790        C791   1.392       .  A
C790        H795   1.084       .  S
C791        C792   1.398       .  A
C791       C1463   1.468       .  S
C792        C793   1.397       .  A
C792        H796   1.084       .  S
C793        C794   1.401       .  A
C793        C951   1.471       .  S
C794        H797   1.083       .  S
C798        C799   1.410       .  A
C798        C803   1.412       .  A
C798       C1473   1.502       .  S
C799        C800   1.413       .  A
C799        H804   1.083       .  S
C800        C801   1.429       .  A
C800       C1823   1.522       .  S
C801        C802   1.424       .  A
C801        H805   1.083       .  S
C802        C803   1.412       .  A
C802        C995   1.518       .  S
C803        H806   1.083       .  S
C807        C808   1.416       .  A
C807        C812   1.419       .  A
C807       C1680   1.518       .  S
C808        C809   1.416       .  A
C808        H813   1.083       .  S
C809        C810   1.423       .  A
C809       C1230   1.522       .  S
C810        C811   1.418       .  A
C810        H814   1.083       .  S
C811        C812   1.413       .  A
C811       C1031   1.517       .  S
C812        H815   1.082       .  S
C816        C817   1.384       .  A
C816        C821   1.391       .  A
C816       C1693   1.445       .  S
C817        C818   1.392       .  A
C817        H822   1.086       .  S
C818        C819   1.410       .  A
C818       C1223   1.470       .  S
C819        C820   1.405       .  A
C819        H823   1.095       .  S
C820        C821   1.396       .  A
C820        C985   1.469       .  S
C821        H824   1.084       .  S
C825        C826   1.394       .  A
C825        C830   1.417       .  A
C825       C1570   1.474       .  S
C826        C827   1.387       .  A
C826        H831   1.086       .  S
C827        C828   1.396       .  A
C827       C1203   1.465       .  S
C828        C829   1.404       .  A
C828        H832   1.084       .  S
C829        C830   1.417       .  A
C829        C927   1.489       .  S
C830        H833   1.083       .  S
C834        C835   1.419       .  A
C834        C839   1.403       .  A
C834       C1210   1.490       .  S
C835        C836   1.412       .  A
C835        H840   1.095       .  S
C836        C837   1.395       .  A
C836        C973   1.487       .  S
C837        C838   1.398       .  A
C837        H841   1.086       .  S
C838        C839   1.397       .  A
C838       C1563   1.481       .  S
C839        H842   1.082       .  S
C843        C844   1.402       .  A
C843        C848   1.402       .  A
C843       C1113   1.494       .  S
C844        C845   1.397       .  A
C844        H849   1.082       .  S
C845        C846   1.405       .  A
C845        C986   1.481       .  S
C846        C847   1.414       .  A
C846        H850   1.084       .  S
C847        C848   1.405       .  A
C847       C1343   1.478       .  S
C848        H851   1.081       .  S
C852        C853   1.398       .  A
C852        C857   1.401       .  A
C852       C1353   1.489       .  S
C853        C854   1.403       .  A
C853        H858   1.083       .  S
C854        C855   1.427       .  A
C854       C1103   1.494       .  S
C855        C856   1.422       .  A
C855        H859   1.083       .  S
C856        C857   1.403       .  A
C856        C996   1.505       .  S
C857        H860   1.083       .  S
C861        C862   1.388       .  A
C861        C866   1.398       .  A
C861       C1090   1.465       .  S
C862        C863   1.395       .  A
C862        H867   1.083       .  S
C863        C864   1.401       .  A
C863       C1443   1.462       .  S
C864        C865   1.399       .  A
C864        H868   1.083       .  S
C865        C866   1.387       .  A
C865        C916   1.456       .  S
C866        H869   1.083       .  S
C870        C871   1.417       .  A
C870        C875   1.409       .  A
C870       C1083   1.506       .  S
C871        C872   1.419       .  A
C871        H876   1.083       .  S
C872        C873   1.429       .  A
C872        C972   1.526       .  S
C873        C874   1.425       .  A
C873        H877   1.083       .  S
C874        C875   1.410       .  A
C874       C1453   1.517       .  S
C875        H878   1.084       .  S
C879        C880   1.421       .  A
C879        C884   1.406       .  A
C879       C1803   1.495       .  S
C880        C881   1.415       .  A
C880        H885   1.082       .  S
C881        C882   1.400       .  A
C881        C961   1.496       .  S
C882        C883   1.402       .  A
C882        H886   1.083       .  S
C883        C884   1.401       .  A
C883       C1333   1.490       .  S
C884        H887   1.083       .  S
C888        C889   1.395       .  A
C888        C893   1.414       .  A
C888       C1323   1.467       .  S
C889        C890   1.387       .  A
C889        H894   1.085       .  S
C890        C891   1.394       .  A
C890       C1813   1.464       .  S
C891        C892   1.400       .  A
C891        H895   1.084       .  S
C892        C893   1.413       .  A
C892        C917   1.483       .  S
C893        H896   1.083       .  S
N897        N898   1.330       .  A
N897        N903   1.314       .  A
N897       Mn926   2.249   1_455  S
N898        C905   1.362       .  A
N899        N901   1.313       .  A
N899        N900   1.333       .  A
N899       Mn915   2.242       .  S
N900        C906   1.362       .  A
N901        N902   1.317       .  A
N901       Mn926   2.199       .  S
N902        C906   1.353       .  A
N903        N904   1.329       .  A
N903       Mn915   2.239   1_455  S
N904        C905   1.362       .  A
N907        N913   1.318       .  A
N907        N908   1.314       .  A
N907       Mn937   2.188       .  S
N908        C916   1.350       .  A
N909        N910   1.315       .  A
N909        N911   1.319       .  A
N909       Mn915   2.213   1_455  S
N910        C917   1.353       .  A
N911        N912   1.327       .  A
N911       Mn937   2.216   1_455  S
N912        C917   1.355       .  A
N913        N914   1.316       .  A
N913       Mn915   2.171       .  S
N914        C916   1.344       .  A
Mn915      Cl939   2.552       .  S
N918        N919   1.327       .  A
N918        N924   1.318       .  A
N918       Mn926   2.221       .  S
N919        C927   1.355       .  A
N920        N922   1.318       .  A
N920        N921   1.323       .  A
N920       Mn938   2.202   1_455  S
N921        C928   1.351       .  A
N922        N923   1.312       .  A
N922       Mn926   2.176   1_455  S
N923        C928   1.346       .  A
N924        N925   1.318       .  A
N924       Mn938   2.213       .  S
N925        C927   1.354       .  A
Mn926      Cl939   2.550       .  S
N929        N930   1.318       .  A
N929        N935   1.314       .  A
N929       Mn937   2.217   1_455  S
N930        C940   1.357       .  A
N931        N932   1.328       .  A
N931        N933   1.315       .  A
N931       Mn938   2.253       .  S
N932        C941   1.363       .  A
N933        N934   1.332       .  A
N933       Mn937   2.246       .  S
N934        C941   1.361       .  A
N935        N936   1.332       .  A
N935       Mn938   2.227   1_455  S
N936        C940   1.359       .  A
Mn937      Cl939   2.552       .  S
Mn938      Cl939   2.553       .  S
N942        N943   1.330       .  A
N942        N948   1.318       .  A
N942       Mn971   2.237   1_554  S
N943        C950   1.359       .  A
N944        N946   1.318       .  A
N944        N945   1.321       .  A
N944       Mn960   2.206   1_556  S
N945        C951   1.350       .  A
N946        N947   1.319       .  A
N946       Mn971   2.183       .  S
N947        C951   1.347       .  A
N948        N949   1.315       .  A
N948       Mn960   2.200       .  S
N949        C950   1.351       .  A
N952        N958   1.314       .  A
N952        N953   1.319       .  A
N952       Mn982   2.209   1_556  S
N953        C961   1.355       .  A
N954        N955   1.332       .  A
N954        N956   1.315       .  A
N954       Mn960   2.254       .  S
N955        C962   1.364       .  A
N956        N957   1.330       .  A
N956       Mn982   2.251       .  S
N957        C962   1.362       .  A
N958        N959   1.329       .  A
N958       Mn960   2.217   1_556  S
N959        C961   1.356       .  A
Mn960      Cl984   2.547   1_554  S
N963        N964   1.330       .  A
N963        N969   1.316       .  A
N963       Mn971   2.246       .  S
N964        C972   1.359       .  A
N965        N967   1.313       .  A
N965        N966   1.327       .  A
N965       Mn983   2.206   1_554  S
N966        C973   1.354       .  A
N967        N968   1.317       .  A
N967       Mn971   2.203   1_554  S
N968        C973   1.356       .  A
N969        N970   1.332       .  A
N969       Mn983   2.266       .  S
N970        C972   1.366       .  A
Mn971      Cl984   2.556       .  S
N974        N975   1.318       .  A
N974        N980   1.319       .  A
N974       Mn982   2.192       .  S
N975        C985   1.350       .  A
N976        N977   1.313       .  A
N976        N978   1.317       .  A
N976       Mn983   2.193       .  S
N977        C986   1.351       .  A
N978        N979   1.327       .  A
N978       Mn982   2.217   1_556  S
N979        C986   1.355       .  A
N980        N981   1.321       .  A
N980       Mn983   2.206   1_554  S
N981        C985   1.350       .  A
Mn982      Cl984   2.553   1_554  S
Mn983      Cl984   2.546       .  S
N987        N988   1.329       .  A
N987        N993   1.314       .  A
N987      Mn1016   2.246       .  S
N988        C995   1.363       .  A
N989        N991   1.314       .  A
N989        N990   1.319   1_545  A
N989      Mn1005   2.221       .  S
N990        C996   1.358       .  A
N991        N992   1.332   1_545  A
N991      Mn1016   2.228       .  S
N992        C996   1.358       .  A
N993        N994   1.330       .  A
N993      Mn1005   2.238       .  S
N994        C995   1.360       .  A
N997       N1003   1.317       .  A
N997        N998   1.316   1_545  A
N997      Mn1027   2.200       .  S
N998       C1006   1.351       .  A
N999       N1000   1.319       .  A
N999       N1001   1.319       .  A
N999      Mn1005   2.194       .  S
N1000      C1007   1.349       .  A
N1001      N1002   1.320       .  A
N1001     Mn1027   2.197       .  S
N1002      C1007   1.348       .  A
N1003      N1004   1.325   1_545  A
N1003     Mn1005   2.215       .  S
N1004      C1006   1.355       .  A
Mn1005    Cl1029   2.548       .  S
N1008      N1009   1.318   1_545  A
N1008      N1014   1.319       .  A
N1008     Mn1016   2.192       .  S
N1009      C1017   1.347       .  A
N1010      N1012   1.318       .  A
N1010      N1011   1.327       .  A
N1010     Mn1028   2.218       .  S
N1011      C1018   1.355       .  A
N1012      N1013   1.316       .  A
N1012     Mn1016   2.204       .  S
N1013      C1018   1.353       .  A
N1014      N1015   1.320   1_545  A
N1014     Mn1028   2.196       .  S
N1015      C1017   1.350       .  A
Mn1016    Cl1029   2.547       .  S
N1019      N1020   1.330       .  A
N1019      N1025   1.313       .  A
N1019     Mn1027   2.223       .  S
N1020      C1030   1.357       .  A
N1021      N1022   1.329   1_545  A
N1021      N1023   1.315       .  A
N1021     Mn1028   2.242       .  S
N1022      C1031   1.360       .  A
N1023      N1024   1.330   1_545  A
N1023     Mn1027   2.246       .  S
N1024      C1031   1.363       .  A
N1025      N1026   1.321       .  A
N1025     Mn1028   2.216       .  S
N1026      C1030   1.357       .  A
Mn1027    Cl1029   2.548       .  S
Mn1028    Cl1029   2.549       .  S
O1032      C1059   1.262       .  A
O1032     Mn1058   2.066       .  S
C1033      C1780   1.467       .  S
C1033      O1066   1.258       .  A
C1033      O1063   1.272       .  A
O1034     Mn1041   2.148       .  S
O1034     Mn1052   2.084       .  S
O1034     Mn1056   2.165       .  S
O1034     Mn1058   2.110       .  S
O1035      C1045   1.274       .  A
O1035     Mn1069   2.097       .  S
O1036      C1059   1.262       .  A
O1036     Mn1052   2.067       .  S
O1037      C1064   1.266       .  A
O1037     Mn1056   2.172       .  S
O1038     Mn1069   1.957       .  S
O1038     Mn1058   1.939       .  S
O1038      C1054   1.210       .  S
C1039      C1950   1.507       .  S
C1039      O1042   1.266       .  A
C1039      O1065   1.216       .  S
O1040     Mn1060   2.098       .  S
O1040     Mn1041   2.171       .  S
O1040     Mn1074   2.128       .  S
O1040     Mn1056   2.175       .  S
Mn1041     O1070   2.188       .  S
Mn1041     O1046   2.190       .  S
Mn1041     O1073   2.181       .  S
Mn1041     O1047   2.180       .  S
O1042     Mn1056   2.163       .  S
O1043      C1045   1.264       .  A
O1043     Mn1050   2.062       .  S
C1044      C1763   1.518       .  S
C1044      O1070   1.265       .  A
C1044      O1057   1.208       .  S
C1045      C2020   1.466       .  S
O1046      C1071   1.276       .  A
O1047     Mn1050   2.085       .  S
O1047     Mn1069   2.083       .  S
O1047     Mn1056   2.164       .  S
O1048     Mn1052   1.978       .  S
O1048     Mn1074   1.984       .  S
O1048      C1071   1.220       .  S
C1049      C1933   1.468       .  S
C1049      O1075   1.271       .  A
C1049      O1051   1.271       .  A
Mn1050     O1063   2.111       .  S
Mn1050     O1065   1.945       .  S
Mn1050     O1057   1.937       .  S
O1051     Mn1074   2.089       .  S
Mn1052     O1068   2.101       .  S
Mn1052     O1062   1.961       .  S
O1053      C1055   1.264       .  A
O1053     Mn1058   2.071       .  S
C1054      C2003   1.521       .  S
C1054      O1072   1.269       .  A
C1055      C1643   1.463       .  S
C1055      O1068   1.270       .  A
Mn1056     O1072   2.189       .  S
O1057     Mn1060   1.946       .  S
Mn1058     O1076   1.945       .  S
C1059      C1980   1.444       .  S
Mn1060     O1067   2.066       .  S
Mn1060     O1075   2.083       .  S
Mn1060     O1065   1.959       .  S
C1061      C1883   1.449       .  S
C1061      O1067   1.266       .  A
C1061      O1077   1.269       .  A
O1062     Mn1074   1.935       .  S
O1062      C1064   1.217       .  S
C1064      C1960   1.515       .  S
O1066     Mn1069   2.059       .  S
Mn1069     O1076   1.945       .  S
C1071      C1900   1.522       .  S
O1073      C1078   1.272       .  A
Mn1074     O1077   2.085       .  S
O1076      C1078   1.212       .  S
C1078      C1663   1.506       .  S
C1079      C1080   1.413       .  A
C1079      C1084   1.407       .  A
C1079      H1086   1.083       .  S
C1080      C1081   1.421       .  A
C1081      C1082   1.418       .  A
C1081     Br1088   1.919       .  S
C1082      C1083   1.409       .  A
C1082      H1087   1.083       .  S
C1083      C1084   1.409       .  A
C1084     Br1085   1.918       .  S
C1089      C1090   1.396       .  A
C1089      C1094   1.378       .  A
C1089      H1096   1.084       .  S
C1090      C1091   1.418       .  A
C1091      C1092   1.389       .  A
C1091     Br1098   1.925       .  S
C1092      C1093   1.398       .  A
C1092      H1097   1.084       .  S
C1093      C1094   1.419       .  A
C1094     Br1095   1.933       .  S
C1099      C1100   1.415       .  A
C1099      C1104   1.395       .  A
C1099      H1106   1.081       .  S
C1100      C1101   1.414       .  A
C1101      C1102   1.417       .  A
C1101     Br1108   1.918       .  S
C1102      C1103   1.414       .  A
C1102      H1107   1.083       .  S
C1103      C1104   1.402       .  A
C1104     Br1105   1.920       .  S
C1109      C1110   1.408       .  A
C1109      C1114   1.399       .  A
C1109      H1116   1.083       .  S
C1110      C1111   1.414       .  A
C1111      C1112   1.391       .  A
C1111     Br1118   1.924       .  S
C1112      C1113   1.407       .  A
C1112      H1117   1.084       .  S
C1113      C1114   1.417       .  A
C1114     Br1115   1.923       .  S
C1119      C1120   1.412       .  A
C1119      C1124   1.407       .  A
C1119      H1126   1.083       .  S
C1120      C1121   1.417       .  A
C1121      C1122   1.423       .  A
C1121     Br1128   1.917       .  S
C1122      C1123   1.414       .  A
C1122      H1127   1.083       .  S
C1123      C1124   1.410       .  A
C1124     Br1125   1.918       .  S
C1129      C1130   1.399       .  A
C1129      C1134   1.382       .  A
C1129      H1136   1.082       .  S
C1130      C1131   1.415       .  A
C1131      C1132   1.399       .  A
C1131     Br1138   1.921       .  S
C1132      C1133   1.400       .  A
C1132      H1137   1.083       .  S
C1133      C1134   1.416       .  A
C1134     Br1135   1.927       .  S
C1139      C1140   1.405       .  A
C1139      C1144   1.399       .  A
C1139      H1146   1.084       .  S
C1140      C1141   1.403       .  A
C1141      C1142   1.392       .  A
C1141     Br1148   1.919       .  S
C1142      C1143   1.402       .  A
C1142      H1147   1.079       .  S
C1143      C1144   1.409       .  A
C1144     Br1145   1.920       .  S
C1149      C1150   1.417       .  A
C1149      C1154   1.413       .  A
C1149      H1156   1.083       .  S
C1150      C1151   1.407       .  A
C1151      C1152   1.397       .  A
C1151     Br1158   1.922       .  S
C1152      C1153   1.415       .  A
C1152      H1157   1.083       .  S
C1153      C1154   1.409       .  A
C1154     Br1155   1.916       .  S
C1159      C1160   1.410       .  A
C1159      C1164   1.422       .  A
C1159      H1166   1.083       .  S
C1160      C1161   1.428       .  A
C1161      C1162   1.405       .  A
C1161     Br1168   1.922       .  S
C1162      C1163   1.402       .  A
C1162      H1167   1.083       .  S
C1163      C1164   1.425       .  A
C1164     Br1165   1.918   1_565  S
C1169      C1170   1.398       .  A
C1169      C1174   1.386       .  A
C1169      H1176   1.083       .  S
C1170      C1171   1.415       .  A
C1171      C1172   1.399       .  A
C1171     Br1178   1.919       .  S
C1172      C1173   1.399       .  A
C1172      H1177   1.084       .  S
C1173      C1174   1.414       .  A
C1174     Br1175   1.923       .  S
C1179      C1180   1.412       .  A
C1179      C1184   1.419       .  A
C1179      H1186   1.083       .  S
C1180      C1181   1.408       .  A
C1181      C1182   1.402       .  A
C1181     Br1188   1.922       .  S
C1182      C1183   1.416       .  A
C1182      H1187   1.083       .  S
C1183      C1184   1.419       .  A
C1184     Br1185   1.915       .  S
C1189      C1190   1.397       .  A
C1189      C1194   1.389       .  A
C1189      H1196   1.084       .  S
C1190      C1191   1.407       .  A
C1191      C1192   1.389       .  A
C1191     Br1198   1.920       .  S
C1192      C1193   1.397       .  A
C1192      H1197   1.084       .  S
C1193      C1194   1.404       .  A
C1194     Br1195   1.911       .  S
C1199      C1200   1.400       .  A
C1199      C1204   1.390       .  A
C1199      H1206   1.075       .  S
C1200      C1201   1.406       .  A
C1201      C1202   1.395       .  A
C1201     Br1208   1.921       .  S
C1202      C1203   1.406       .  A
C1202      H1207   1.084       .  S
C1203      C1204   1.401       .  A
C1204     Br1205   1.917       .  S
C1209      C1210   1.416       .  A
C1209      C1214   1.413       .  A
C1209      H1216   1.086       .  S
C1210      C1211   1.405       .  A
C1211      C1212   1.388       .  A
C1211     Br1218   1.924       .  S
C1212      C1213   1.413       .  A
C1212      H1217   1.087       .  S
C1213      C1214   1.410       .  A
C1214     Br1215   1.916       .  S
C1219      C1220   1.401       .  A
C1219      C1224   1.401       .  A
C1219      H1226   1.083       .  S
C1220      C1221   1.413       .  A
C1221      C1222   1.381       .  A
C1221     Br1228   1.923       .  S
C1222      C1223   1.396       .  A
C1222      H1227   1.085       .  S
C1223      C1224   1.414       .  A
C1224     Br1225   1.919       .  S
C1229      C1230   1.418       .  A
C1229      C1234   1.423       .  A
C1229      H1236   1.083       .  S
C1230      C1231   1.413       .  A
C1231      C1232   1.404       .  A
C1231     Br1238   1.923       .  S
C1232      C1233   1.414       .  A
C1232      H1237   1.082       .  S
C1233      C1234   1.415       .  A
C1234     Br1235   1.916       .  S
C1239      C1240   1.396       .  A
C1239      C1244   1.386       .  A
C1239      H1246   1.084       .  S
C1240      C1241   1.401       .  A
C1241      C1242   1.388       .  A
C1241     Br1248   1.912       .  S
C1242      C1243   1.399       .  A
C1242      H1247   1.084       .  S
C1243      C1244   1.409       .  A
C1244     Br1245   1.923       .  S
C1249      C1250   1.410       .  A
C1249      C1254   1.419       .  A
C1249      H1256   1.081       .  S
C1250      C1251   1.424       .  A
C1251      C1252   1.398       .  A
C1251     Br1258   1.916       .  S
C1252      C1253   1.401       .  A
C1252      H1257   1.083       .  S
C1253      C1254   1.422       .  A
C1254     Br1255   1.918       .  S
C1259      C1260   1.401       .  A
C1259      C1264   1.398       .  A
C1259      H1266   1.084       .  S
C1260      C1261   1.415       .  A
C1261      C1262   1.381       .  A
C1261     Br1268   1.926       .  S
C1262      C1263   1.399       .  A
C1262      H1267   1.082       .  S
C1263      C1264   1.415       .  A
C1264     Br1265   1.921       .  S
C1269      C1270   1.408       .  A
C1269      C1274   1.421       .  A
C1269      H1276   1.083       .  S
C1270      C1271   1.437       .  A
C1271      C1272   1.403       .  A
C1271     Br1278   1.930       .  S
C1272      C1273   1.396       .  A
C1272      H1277   1.084       .  S
C1273      C1274   1.422       .  A
C1274     Br1275   1.914       .  S
C1279      C1280   1.407       .  A
C1279      C1284   1.413       .  A
C1279      H1286   1.083       .  S
C1280      C1281   1.432       .  A
C1281      C1282   1.393       .  A
C1281     Br1288   1.925       .  S
C1282      C1283   1.390       .  A
C1282      H1287   1.084       .  S
C1283      C1284   1.418       .  A
C1284     Br1285   1.917       .  S
C1289      C1290   1.408       .  A
C1289      C1294   1.403   1_565  A
C1289      H1296   1.083       .  S
C1290      C1291   1.411       .  A
C1291      C1292   1.384       .  A
C1291     Br1298   1.916       .  S
C1292      C1293   1.404   1_565  A
C1292      H1297   1.084       .  S
C1293      C1294   1.421       .  A
C1294     Br1295   1.922       .  S
C1299      C1300   1.395       .  A
C1299      C1304   1.400       .  A
C1299      H1306   1.084       .  S
C1300      C1301   1.418       .  A
C1301      C1302   1.420       .  A
C1301     Br1308   1.915       .  S
C1302      C1303   1.412       .  A
C1302      H1307   1.083       .  S
C1303      C1304   1.428       .  A
C1304     Br1305   1.919       .  S
C1309      C1310   1.404       .  A
C1309      C1314   1.396       .  A
C1309      H1316   1.083       .  S
C1310      C1311   1.414       .  A
C1311      C1312   1.382       .  A
C1311     Br1318   1.924       .  S
C1312      C1313   1.391       .  A
C1312      H1317   1.085       .  S
C1313      C1314   1.406       .  A
C1314     Br1315   1.917       .  S
C1319      C1320   1.406       .  A
C1319      C1324   1.405       .  A
C1319      H1326   1.083       .  S
C1320      C1321   1.417       .  A
C1321      C1322   1.386       .  A
C1321     Br1328   1.927       .  S
C1322      C1323   1.397       .  A
C1322      H1327   1.085       .  S
C1323      C1324   1.407       .  A
C1324     Br1325   1.914       .  S
C1329      C1330   1.403       .  A
C1329      C1334   1.404       .  A
C1329      H1336   1.083       .  S
C1330      C1331   1.404       .  A
C1331      C1332   1.387       .  A
C1331     Br1338   1.920       .  S
C1332      C1333   1.407       .  A
C1332      H1337   1.083       .  S
C1333      C1334   1.416       .  A
C1334     Br1335   1.919       .  S
C1339      C1340   1.408       .  A
C1339      C1344   1.389       .  A
C1339      H1346   1.083       .  S
C1340      C1341   1.417       .  A
C1341      C1342   1.408       .  A
C1341     Br1348   1.919       .  S
C1342      C1343   1.406       .  A
C1342      H1347   1.083       .  S
C1343      C1344   1.406       .  A
C1344     Br1345   1.923       .  S
C1349      C1350   1.403       .  A
C1349      C1354   1.403       .  A
C1349      H1356   1.084       .  S
C1350      C1351   1.406       .  A
C1351      C1352   1.388       .  A
C1351     Br1358   1.919       .  S
C1352      C1353   1.406       .  A
C1352      H1357   1.083       .  S
C1353      C1354   1.415       .  A
C1354     Br1355   1.918       .  S
C1359      C1360   1.408       .  A
C1359      C1364   1.405       .  A
C1359      H1366   1.083       .  S
C1360      C1361   1.405       .  A
C1361      C1362   1.391       .  A
C1361     Br1368   1.922       .  S
C1362      C1363   1.411       .  A
C1362      H1367   1.083       .  S
C1363      C1364   1.413       .  A
C1364     Br1365   1.919       .  S
C1369      C1370   1.406       .  A
C1369      C1374   1.397       .  A
C1369      H1376   1.083       .  S
C1370      C1371   1.417       .  A
C1371      C1372   1.388       .  A
C1371     Br1378   1.927       .  S
C1372      C1373   1.403       .  A
C1372      H1377   1.083       .  S
C1373      C1374   1.414       .  A
C1374     Br1375   1.924       .  S
C1379      C1380   1.410       .  A
C1379      C1384   1.388       .  A
C1379      H1386   1.083       .  S
C1380      C1381   1.412       .  A
C1381      C1382   1.405       .  A
C1381     Br1388   1.918       .  S
C1382      C1383   1.409       .  A
C1382      H1387   1.083       .  S
C1383      C1384   1.405       .  A
C1384     Br1385   1.923       .  S
C1389      C1390   1.400       .  A
C1389      C1394   1.392       .  A
C1389      H1396   1.084       .  S
C1390      C1391   1.404       .  A
C1391      C1392   1.400       .  A
C1391     Br1398   1.909       .  S
C1392      C1393   1.406       .  A
C1392      H1397   1.083       .  S
C1393      C1394   1.413       .  A
C1394     Br1395   1.924       .  S
C1399      C1400   1.406       .  A
C1399      C1404   1.399   1_545  A
C1399      H1406   1.083       .  S
C1400      C1401   1.410   1_545  A
C1401      C1402   1.388       .  A
C1401     Br1408   1.924   1_565  S
C1402      C1403   1.398       .  A
C1402      H1407   1.082       .  S
C1403      C1404   1.405       .  A
C1404     Br1405   1.911       .  S
C1409      C1410   1.412       .  A
C1409      C1414   1.387       .  A
C1409      H1416   1.083       .  S
C1410      C1411   1.413       .  A
C1411      C1412   1.408       .  A
C1411     Br1418   1.917       .  S
C1412      C1413   1.408       .  A
C1412      H1417   1.083       .  S
C1413      C1414   1.401       .  A
C1414     Br1415   1.923       .  S
C1419      C1420   1.406       .  A
C1419      C1424   1.404       .  A
C1419      H1426   1.083       .  S
C1420      C1421   1.403       .  A
C1421      C1422   1.387       .  A
C1421     Br1428   1.923       .  S
C1422      C1423   1.410       .  A
C1422      H1427   1.083       .  S
C1423      C1424   1.414       .  A
C1424     Br1425   1.919       .  S
C1429      C1430   1.410       .  A
C1429      C1434   1.401       .  A
C1429      H1436   1.083       .  S
C1430      C1431   1.416       .  A
C1431      C1432   1.391       .  A
C1431     Br1438   1.926       .  S
C1432      C1433   1.402       .  A
C1432      H1437   1.084       .  S
C1433      C1434   1.404       .  A
C1434     Br1435   1.912       .  S
C1439      C1440   1.393       .  A
C1439      C1444   1.381       .  A
C1439      H1446   1.085       .  S
C1440      C1441   1.399       .  A
C1441      C1442   1.394       .  A
C1441     Br1448   1.916       .  S
C1442      C1443   1.406       .  A
C1442      H1447   1.083       .  S
C1443      C1444   1.416       .  A
C1444     Br1445   1.926       .  S
C1449      C1450   1.413       .  A
C1449      C1454   1.425       .  A
C1449      H1456   1.079       .  S
C1450      C1451   1.428       .  A
C1451      C1452   1.410       .  A
C1451     Br1458   1.919       .  S
C1452      C1453   1.400       .  A
C1452      H1457   1.084       .  S
C1453      C1454   1.417       .  A
C1454     Br1455   1.915       .  S
C1459      C1460   1.396       .  A
C1459      C1464   1.385       .  A
C1459      H1466   1.085       .  S
C1460      C1461   1.401       .  A
C1461      C1462   1.393       .  A
C1461     Br1468   1.917       .  S
C1462      C1463   1.406       .  A
C1462      H1467   1.083       .  S
C1463      C1464   1.413       .  A
C1464     Br1465   1.925       .  S
C1469      C1470   1.414       .  A
C1469      C1474   1.403       .  A
C1469      H1476   1.083       .  S
C1470      C1471   1.419       .  A
C1471      C1472   1.416       .  A
C1471     Br1478   1.917       .  S
C1472      C1473   1.409       .  A
C1472      H1477   1.083       .  S
C1473      C1474   1.408       .  A
C1474     Br1475   1.921       .  S
C1479      C1480   1.405       .  A
C1479      C1484   1.386       .  A
C1479      H1486   1.083       .  S
C1480      C1481   1.414       .  A
C1481      C1482   1.401       .  A
C1481     Br1488   1.920       .  S
C1482      C1483   1.403       .  A
C1482      H1487   1.083       .  S
C1483      C1484   1.410       .  A
C1484     Br1485   1.926       .  S
C1489      C1490   1.412       .  A
C1489      C1494   1.394       .  A
C1489      H1496   1.082       .  S
C1490      C1491   1.411       .  A
C1491      C1492   1.418       .  A
C1491     Br1498   1.917       .  S
C1492      C1493   1.421       .  A
C1492      H1497   1.083       .  S
C1493      C1494   1.410       .  A
C1494     Br1495   1.923       .  S
C1499      C1500   1.402       .  A
C1499      C1504   1.380       .  A
C1499      H1506   1.084       .  S
C1500      C1501   1.410       .  A
C1501      C1502   1.399       .  A
C1501     Br1508   1.920       .  S
C1502      C1503   1.402       .  A
C1502      H1507   1.082       .  S
C1503      C1504   1.405       .  A
C1504     Br1505   1.922       .  S
C1509      C1510   1.411       .  A
C1509      C1514   1.401       .  A
C1509      H1516   1.083       .  S
C1510      C1511   1.415       .  A
C1511      C1512   1.418       .  A
C1511     Br1518   1.915       .  S
C1512      C1513   1.415       .  A
C1512      H1517   1.083       .  S
C1513      C1514   1.415       .  A
C1514     Br1515   1.924       .  S
C1519      C1520   1.410       .  A
C1519      C1524   1.396       .  A
C1519      H1526   1.083       .  S
C1520      C1521   1.414       .  A
C1521      C1522   1.383       .  A
C1521     Br1528   1.925       .  S
C1522      C1523   1.397       .  A
C1522      H1527   1.085       .  S
C1523      C1524   1.402       .  A
C1524     Br1525   1.918       .  S
C1529      C1530   1.413       .  A
C1529      C1534   1.422       .  A
C1529      H1536   1.083       .  S
C1530      C1531   1.408       .  A
C1531      C1532   1.407       .  A
C1531     Br1538   1.919       .  S
C1532      C1533   1.417       .  A
C1532      H1537   1.083       .  S
C1533      C1534   1.418       .  A
C1534     Br1535   1.914       .  S
C1539      C1540   1.394       .  A
C1539      C1544   1.393       .  A
C1539      H1546   1.085       .  S
C1540      C1541   1.414       .  A
C1541      C1542   1.415       .  A
C1541     Br1548   1.914       .  S
C1542      C1543   1.406       .  A
C1542      H1547   1.080       .  S
C1543      C1544   1.425       .  A
C1544     Br1545   1.928       .  S
C1549      C1550   1.402       .  A
C1549      C1554   1.398       .  A
C1549      H1556   1.083       .  S
C1550      C1551   1.409       .  A
C1551      C1552   1.386       .  A
C1551     Br1558   1.922       .  S
C1552      C1553   1.394       .  A
C1552      H1557   1.084       .  S
C1553      C1554   1.407       .  A
C1554     Br1555   1.915       .  S
C1559      C1560   1.408       .  A
C1559      C1564   1.399       .  A
C1559      H1566   1.084       .  S
C1560      C1561   1.416       .  A
C1561      C1562   1.386       .  A
C1561     Br1568   1.925       .  S
C1562      C1563   1.402       .  A
C1562      H1567   1.082       .  S
C1563      C1564   1.412       .  A
C1564     Br1565   1.923       .  S
C1569      C1570   1.399       .  A
C1569      C1574   1.391       .  A
C1569      H1576   1.084       .  S
C1570      C1571   1.408       .  A
C1571      C1572   1.407       .  A
C1571     Br1578   1.916       .  S
C1572      C1573   1.408       .  A
C1572      H1577   1.083       .  S
C1573      C1574   1.415       .  A
C1574     Br1575   1.923       .  S
C1579      C1580   1.406       .  A
C1579      C1584   1.401       .  A
C1579      H1586   1.083       .  S
C1580      C1581   1.418       .  A
C1581      C1582   1.395       .  A
C1581     Br1588   1.926       .  S
C1582      C1583   1.408       .  A
C1582      H1587   1.082       .  S
C1583      C1584   1.418       .  A
C1584     Br1585   1.922       .  S
C1589      C1590   1.412       .  A
C1589      C1594   1.390       .  A
C1589      H1596   1.083       .  S
C1590      C1591   1.406       .  A
C1591      C1592   1.407       .  A
C1591     Br1598   1.917       .  S
C1592      C1593   1.414       .  A
C1592      H1597   1.083       .  S
C1593      C1594   1.406       .  A
C1594     Br1595   1.923       .  S
C1599      C1600   1.402       .  A
C1599      C1604   1.394       .  A
C1599      H1606   1.078       .  S
C1600      C1601   1.412       .  A
C1601      C1602   1.398       .  A
C1601     Br1608   1.922       .  S
C1602      C1603   1.401       .  A
C1602      H1607   1.084       .  S
C1603      C1604   1.400       .  A
C1604     Br1605   1.915       .  S
C1609      C1610   1.406       .  A
C1609      C1614   1.406       .  A
C1609      H1616   1.083       .  S
C1610      C1611   1.424       .  A
C1611      C1612   1.390       .  A
C1611     Br1618   1.929       .  S
C1612      C1613   1.397       .  A
C1612      H1617   1.084       .  S
C1613      C1614   1.413       .  A
C1614     Br1615   1.918       .  S
C1619      C1620   1.403       .  A
C1619      C1624   1.401       .  A
C1619      H1626   1.083       .  S
C1620      C1621   1.405       .  A
C1621      C1622   1.392       .  A
C1621     Br1628   1.920       .  S
C1622      C1623   1.401       .  A
C1622      H1627   1.084       .  S
C1623      C1624   1.407       .  A
C1624     Br1625   1.917       .  S
C1629      C1630   1.410       .  A
C1629      C1634   1.389       .  A
C1629      H1636   1.082       .  S
C1630      C1631   1.412       .  A
C1631      C1632   1.403       .  A
C1631     Br1638   1.919       .  S
C1632      C1633   1.408       .  A
C1632      H1637   1.083       .  S
C1633      C1634   1.404       .  A
C1634     Br1635   1.923       .  S
C1639      C1640   1.404       .  A
C1639      C1644   1.400       .  A
C1639      H1646   1.083       .  S
C1640      C1641   1.409       .  A
C1641      C1642   1.391       .  A
C1641     Br1648   1.922       .  S
C1642      C1643   1.400       .  A
C1642      H1647   1.084       .  S
C1643      C1644   1.407       .  A
C1644     Br1645   1.918       .  S
C1649      C1650   1.409       .  A
C1649      C1654   1.389       .  A
C1649      H1656   1.083       .  S
C1650      C1651   1.411       .  A
C1651      C1652   1.407       .  A
C1651     Br1658   1.918       .  S
C1652      C1653   1.411       .  A
C1652      H1657   1.084       .  S
C1653      C1654   1.406       .  A
C1654     Br1655   1.923       .  S
C1659      C1660   1.393       .  A
C1659      C1664   1.392       .  A
C1659      H1666   1.083       .  S
C1660      C1661   1.421       .  A
C1661      C1662   1.414       .  A
C1661     Br1668   1.919       .  S
C1662      C1663   1.407       .  A
C1662      H1667   1.083       .  S
C1663      C1664   1.430       .  A
C1664     Br1665   1.922       .  S
C1669      C1670   1.402       .  A
C1669      C1674   1.388       .  A
C1669      H1676   1.084       .  S
C1670      C1671   1.411       .  A
C1671      C1672   1.403       .  A
C1671     Br1678   1.917       .  S
C1672      C1673   1.402       .  A
C1672      H1677   1.084       .  S
C1673      C1674   1.404       .  A
C1674     Br1675   1.921       .  S
C1679      C1680   1.417       .  A
C1679      C1684   1.420       .  A
C1679      H1686   1.082       .  S
C1680      C1681   1.415       .  A
C1681      C1682   1.401       .  A
C1681     Br1688   1.924       .  S
C1682      C1683   1.412       .  A
C1682      H1687   1.082       .  S
C1683      C1684   1.414       .  A
C1684     Br1685   1.915       .  S
C1689      C1690   1.402       .  A
C1689      C1694   1.389       .  A
C1689      H1696   1.081       .  S
C1690      C1691   1.399       .  A
C1691      C1692   1.386       .  A
C1691     Br1698   1.920       .  S
C1692      C1693   1.402       .  A
C1692      H1697   1.087       .  S
C1693      C1694   1.395       .  A
C1694     Br1695   1.915       .  S
C1699      C1700   1.391       .  A
C1699      C1704   1.392       .  A
C1699      H1706   1.084       .  S
C1700      C1701   1.425       .  A
C1701      C1702   1.416       .  A
C1701     Br1708   1.921       .  S
C1702      C1703   1.406       .  A
C1702      H1707   1.083       .  S
C1703      C1704   1.433       .  A
C1704     Br1705   1.925       .  S
C1709      C1710   1.403       .  A
C1709      C1714   1.395       .  A
C1709      H1716   1.084       .  S
C1710      C1711   1.405       .  A
C1711      C1712   1.396       .  A
C1711     Br1718   1.920       .  S
C1712      C1713   1.405       .  A
C1712      H1717   1.079       .  S
C1713      C1714   1.406       .  A
C1714     Br1715   1.920       .  S
C1719      C1720   1.411       .  A
C1719      C1724   1.407       .  A
C1719      H1726   1.083       .  S
C1720      C1721   1.413       .  A
C1721      C1722   1.419       .  A
C1721     Br1728   1.917       .  S
C1722      C1723   1.419       .  A
C1722      H1727   1.083       .  S
C1723      C1724   1.418       .  A
C1724     Br1725   1.921       .  S
C1729      C1730   1.399       .  A
C1729      C1734   1.396       .  A
C1729      H1736   1.082       .  S
C1730      C1731   1.400       .  A
C1731      C1732   1.387       .  A
C1731     Br1738   1.917       .  S
C1732      C1733   1.402       .  A
C1732      H1737   1.084       .  S
C1733      C1734   1.408       .  A
C1734     Br1735   1.918       .  S
C1739      C1740   1.418       .  A
C1739      C1744   1.392       .  A
C1739      H1746   1.082       .  S
C1740      C1741   1.410       .  A
C1741      C1742   1.414       .  A
C1741     Br1748   1.915       .  S
C1742      C1743   1.415       .  A
C1742      H1747   1.083       .  S
C1743      C1744   1.400       .  A
C1744     Br1745   1.922       .  S
C1749      C1750   1.401       .  A
C1749      C1754   1.397       .  A
C1749      H1756   1.083       .  S
C1750      C1751   1.411       .  A
C1751      C1752   1.386       .  A
C1751     Br1758   1.922       .  S
C1752      C1753   1.394       .  A
C1752      H1757   1.084       .  S
C1753      C1754   1.406       .  A
C1754     Br1755   1.912       .  S
C1759      C1760   1.402       .  A
C1759      C1764   1.404       .  A
C1759      H1766   1.083       .  S
C1760      C1761   1.423       .  A
C1761      C1762   1.418       .  A
C1761     Br1768   1.916       .  S
C1762      C1763   1.408       .  A
C1762      H1767   1.083       .  S
C1763      C1764   1.428       .  A
C1764     Br1765   1.924       .  S
C1769      C1770   1.410       .  A
C1769      C1774   1.418       .  A
C1769      H1776   1.083       .  S
C1770      C1771   1.429       .  A
C1771      C1772   1.403       .  A
C1771     Br1778   1.923       .  S
C1772      C1773   1.399       .  A
C1772      H1777   1.084       .  S
C1773      C1774   1.419       .  A
C1774     Br1775   1.915   1_565  S
C1779      C1780   1.403       .  A
C1779      C1784   1.403       .  A
C1779      H1786   1.084       .  S
C1780      C1781   1.415       .  A
C1781      C1782   1.383       .  A
C1781     Br1788   1.925       .  S
C1782      C1783   1.398       .  A
C1782      H1787   1.084       .  S
C1783      C1784   1.414       .  A
C1784     Br1785   1.918       .  S
C1789      C1790   1.403       .  A
C1789      C1794   1.388       .  A
C1789      H1796   1.084   1_565  S
C1790      C1791   1.400       .  A
C1791      C1792   1.394       .  A
C1791     Br1798   1.916       .  S
C1792      C1793   1.403       .  A
C1792      H1797   1.083       .  S
C1793      C1794   1.400       .  A
C1794     Br1795   1.919       .  S
C1799      C1800   1.416       .  A
C1799      C1804   1.395       .  A
C1799      H1806   1.082       .  S
C1800      C1801   1.412       .  A
C1801      C1802   1.414       .  A
C1801     Br1808   1.916       .  S
C1802      C1803   1.414       .  A
C1802      H1807   1.083       .  S
C1803      C1804   1.404       .  A
C1804     Br1805   1.922       .  S
C1809      C1810   1.402       .  A
C1809      C1814   1.391       .  A
C1809      H1816   1.079       .  S
C1810      C1811   1.411       .  A
C1811      C1812   1.391       .  A
C1811     Br1818   1.924       .  S
C1812      C1813   1.402       .  A
C1812      H1817   1.084       .  S
C1813      C1814   1.402       .  A
C1814     Br1815   1.919       .  S
C1819      C1820   1.410       .  A
C1819      C1824   1.425       .  A
C1819      H1826   1.083       .  S
C1820      C1821   1.437       .  A
C1821      C1822   1.402       .  A
C1821     Br1828   1.926       .  S
C1822      C1823   1.395       .  A
C1822      H1827   1.084       .  S
C1823      C1824   1.424       .  A
C1824     Br1825   1.915       .  S
C1829      C1830   1.397       .  A
C1829      C1834   1.380       .  A
C1829      H1836   1.083       .  S
C1830      C1831   1.413       .  A
C1831      C1832   1.400       .  A
C1831     Br1838   1.919       .  S
C1832      C1833   1.402       .  A
C1832      H1837   1.083       .  S
C1833      C1834   1.418       .  A
C1834     Br1835   1.928       .  S
C1839      C1840   1.404       .  A
C1839      C1844   1.410       .  A
C1839      H1846   1.083       .  S
C1840      C1841   1.433       .  A
C1841      C1842   1.394       .  A
C1841     Br1848   1.924       .  S
C1842      C1843   1.391       .  A
C1842      H1847   1.084       .  S
C1843      C1844   1.420       .  A
C1844     Br1845   1.919       .  S
C1849      C1850   1.399       .  A
C1849      C1854   1.392       .  A
C1849      H1856   1.084       .  S
C1850      C1851   1.406       .  A
C1851      C1852   1.400       .  A
C1851     Br1858   1.918       .  S
C1852      C1853   1.405       .  A
C1852      H1857   1.083       .  S
C1853      C1854   1.413       .  A
C1854     Br1855   1.924       .  S
C1859      C1860   1.400       .  A
C1859      C1864   1.403       .  A
C1859      H1866   1.084       .  S
C1860      C1861   1.421       .  A
C1861      C1862   1.423       .  A
C1861     Br1868   1.917       .  S
C1862      C1863   1.412       .  A
C1862      H1867   1.083       .  S
C1863      C1864   1.428       .  A
C1864     Br1865   1.920       .  S
C1869      C1870   1.401       .  A
C1869      C1874   1.394       .  A
C1869      H1876   1.084       .  S
C1870      C1871   1.401       .  A
C1871      C1872   1.385       .  A
C1871     Br1878   1.921       .  S
C1872      C1873   1.401       .  A
C1872      H1877   1.084       .  S
C1873      C1874   1.404       .  A
C1874     Br1875   1.916       .  S
C1879      C1880   1.400       .  A
C1879      C1884   1.395       .  A
C1879      H1886   1.084       .  S
C1880      C1881   1.408       .  A
C1881      C1882   1.387       .  A
C1881     Br1888   1.922       .  S
C1882      C1883   1.396       .  A
C1882      H1887   1.083       .  S
C1883      C1884   1.407       .  A
C1884     Br1885   1.915       .  S
C1889      C1890   1.398       .  A
C1889      C1894   1.384       .  A
C1889      H1896   1.084       .  S
C1890      C1891   1.412       .  A
C1891      C1892   1.399       .  A
C1891     Br1898   1.917       .  S
C1892      C1893   1.400       .  A
C1892      H1897   1.084       .  S
C1893      C1894   1.414       .  A
C1894     Br1895   1.924       .  S
C1899      C1900   1.410       .  A
C1899      C1904   1.423       .  A
C1899      H1906   1.079       .  S
C1900      C1901   1.420       .  A
C1901      C1902   1.397       .  A
C1901     Br1908   1.900       .  S
C1902      C1903   1.404       .  A
C1902      H1907   1.080       .  S
C1903      C1904   1.432       .  A
C1904     Br1905   1.922       .  S
C1909      C1910   1.401       .  A
C1909      C1914   1.404       .  A
C1909      H1916   1.083       .  S
C1910      C1911   1.426       .  A
C1911      C1912   1.423       .  A
C1911     Br1918   1.920       .  S
C1912      C1913   1.411       .  A
C1912      H1917   1.083       .  S
C1913      C1914   1.430       .  A
C1914     Br1915   1.925       .  S
C1919      C1920   1.397       .  A
C1919      C1924   1.395       .  A
C1919      H1926   1.084       .  S
C1920      C1921   1.409       .  A
C1921      C1922   1.408       .  A
C1921     Br1928   1.916       .  S
C1922      C1923   1.408       .  A
C1922      H1927   1.083       .  S
C1923      C1924   1.420       .  A
C1924     Br1925   1.921       .  S
C1929      C1930   1.408       .  A
C1929      C1934   1.389       .  A
C1929      H1936   1.082       .  S
C1930      C1931   1.416       .  A
C1931      C1932   1.402       .  A
C1931     Br1938   1.921       .  S
C1932      C1933   1.403       .  A
C1932      H1937   1.084       .  S
C1933      C1934   1.405       .  A
C1934     Br1935   1.923       .  S
C1939      C1940   1.406       .  A
C1939      C1944   1.403       .  A
C1939      H1946   1.083       .  S
C1940      C1941   1.410       .  A
C1941      C1942   1.390       .  A
C1941     Br1948   1.922       .  S
C1942      C1943   1.396       .  A
C1942      H1947   1.084       .  S
C1943      C1944   1.406       .  A
C1944     Br1945   1.915       .  S
C1949      C1950   1.415       .  A
C1949      C1954   1.395       .  A
C1949      H1956   1.083       .  S
C1950      C1951   1.413       .  A
C1951      C1952   1.415       .  A
C1951     Br1958   1.917       .  S
C1952      C1953   1.414       .  A
C1952      H1957   1.083       .  S
C1953      C1954   1.404       .  A
C1954     Br1955   1.921       .  S
C1959      C1960   1.412       .  A
C1959      C1964   1.420       .  A
C1959      H1966   1.083       .  S
C1960      C1961   1.423       .  A
C1961      C1962   1.406       .  A
C1961     Br1968   1.919       .  S
C1962      C1963   1.400       .  A
C1962      H1967   1.084       .  S
C1963      C1964   1.414       .  A
C1964     Br1965   1.914       .  S
C1969      C1970   1.402       .  A
C1969      C1974   1.408       .  A
C1969      H1976   1.083       .  S
C1970      C1971   1.426       .  A
C1971      C1972   1.423       .  A
C1971     Br1978   1.920       .  S
C1972      C1973   1.411       .  A
C1972      H1977   1.083       .  S
C1973      C1974   1.430       .  A
C1974     Br1975   1.923       .  S
C1979      C1980   1.394       .  A
C1979      C1984   1.377       .  A
C1979      H1986   1.085       .  S
C1980      C1981   1.405       .  A
C1981      C1982   1.393       .  A
C1981     Br1988   1.918       .  S
C1982      C1983   1.404       .  A
C1982      H1987   1.084       .  S
C1983      C1984   1.412       .  A
C1984     Br1985   1.927       .  S
C1989      C1990   1.401       .  A
C1989      C1994   1.394       .  A
C1989      H1996   1.084       .  S
C1990      C1991   1.395       .  A
C1991      C1992   1.387       .  A
C1991     Br1998   1.914       .  S
C1992      C1993   1.399       .  A
C1992      H1997   1.078       .  S
C1993      C1994   1.407       .  A
C1994     Br1995   1.921       .  S
C1999      C2000   1.398       .  A
C1999      C2004   1.404       .  A
C1999      H2006   1.084       .  S
C2000      C2001   1.420       .  A
C2001      C2002   1.418       .  A
C2001     Br2008   1.916       .  S
C2002      C2003   1.409       .  A
C2002      H2007   1.083       .  S
C2003      C2004   1.433       .  A
C2004     Br2005   1.922       .  S
C2009      C2010   1.415       .  A
C2009      C2014   1.401       .  A
C2009      H2016   1.079       .  S
C2010      C2011   1.418       .  A
C2011      C2012   1.419       .  A
C2011     Br2018   1.915       .  S
C2012      C2013   1.411       .  A
C2012      H2017   1.083       .  S
C2013      C2014   1.404       .  A
C2014     Br2015   1.921       .  S
C2019      C2020   1.401       .  A
C2019      C2024   1.400       .  A
C2019      H2026   1.084       .  S
C2020      C2021   1.415       .  A
C2021      C2022   1.382       .  A
C2021     Br2028   1.927       .  S
C2022      C2023   1.401       .  A
C2022      H2027   1.082       .  S
C2023      C2024   1.417       .  A
C2024     Br2025   1.922       .  S
C2029      C2030   1.401       .  A
C2029      C2034   1.392       .  A
C2029      H2036   1.084       .  S
C2030      C2031   1.409       .  A
C2031      C2032   1.382       .  A
C2031     Br2038   1.922       .  S
C2032      C2033   1.393       .  A
C2032      H2037   1.085       .  S
C2033      C2034   1.405       .  A
C2034     Br2035   1.915       .  S
