geometry optimzed in LAMMPS
_audit_creation_date              2020-12-01 
_audit_creation_method            'lammps2cif' 
_symmetry_space_group_name_H-M    'P1' 
_symmetry_Int_Tables_number       1 
_symmetry_cell_setting            triclinic 
loop_ 
_symmetry_equiv_pos_as_xyz 
  x,y,z 
_cell_length_a                    42.2781543 
_cell_length_b                    42.375626192789674 
_cell_length_c                    31.91479343223388 
_cell_angle_alpha                 89.21419972643191 
_cell_angle_beta                  89.33513510980771 
_cell_angle_gamma                 120.384285555566 
loop_ 
_atom_site_label 
_atom_site_type_symbol 
_atom_site_fract_x 
_atom_site_fract_y 
_atom_site_fract_z 
_atom_site_charge 
In1        In  0.36481556  0.24122849  0.50413014     1.36900
C2          C  0.35992339  0.21971330  0.42590643     0.77700
O3          O  0.30709184  0.22816770  0.50057542    -0.60800
O4          O  0.34962833  0.28441497  0.49957455    -0.51700
C5          C  0.35066304  0.21996720  0.58343160     0.70300
O6          O  0.34237792  0.19724377  0.55411426    -0.46500
C7          C  0.43528910  0.26413343  0.50951183     0.75000
O8          O  0.34548361  0.19713561  0.45654977    -0.58400
O9          O  0.42363946  0.28641556  0.50577470    -0.48500
O10         O  0.37662620  0.25296822  0.43595220    -0.54800
C11         C  0.31548903  0.26135343  0.49876968     0.85200
O12         O  0.36529464  0.25307590  0.57151322    -0.56700
O13         O  0.41052354  0.23080148  0.51083793    -0.60000
In14       In  0.31389387  0.17623709  0.17212420     1.36900
C15         C  0.29079776  0.22363721  0.17301688     0.77700
O16         O  0.30378287  0.16621866  0.24061620    -0.60800
O17         O  0.35912407  0.20084272  0.21910501    -0.51700
C18         C  0.29046538  0.10539315  0.16712836     0.70300
O19         O  0.26869444  0.11753916  0.17163222    -0.46500
C20         C  0.33402620  0.19110856  0.09229763     0.75000
O21         O  0.26851454  0.18933294  0.17458936    -0.58400
O22         O  0.35756706  0.19939744  0.12081496    -0.48500
O23         O  0.32422772  0.23277208  0.17308705    -0.54800
C24         C  0.33695142  0.18654253  0.25012765     0.85200
O25         O  0.32406562  0.12985459  0.16566045    -0.56700
O26         O  0.30114441  0.17541820  0.10545910    -0.60000
In27       In  0.15961401  0.32886408  0.49767276     1.36900
C28         C  0.17722717  0.35180911  0.57423870     0.77700
O29         O  0.11597565  0.34329300  0.50281890    -0.60800
O30         O  0.10026591  0.28683259  0.50378519    -0.51700
C31         C  0.17007899  0.34795735  0.41781684     0.70300
O32         O  0.18581579  0.37123216  0.44624885    -0.46500
C33         C  0.20466219  0.30319491  0.49568715     0.75000
O34         O  0.18460928  0.37421272  0.54370167    -0.58400
O35         O  0.17015835  0.28196845  0.49918178    -0.48500
O36         O  0.16060649  0.31842308  0.56497312    -0.54800
C37         C  0.09012974  0.31037036  0.50512333     0.85200
O38         O  0.14792852  0.31570441  0.43077396    -0.56700
O39         O  0.21511803  0.33684966  0.49252462    -0.60000
In40       In  0.22352858  0.38030124  0.16048967     1.36900
C41         C  0.24385175  0.33085410  0.16369464     0.77700
O42         O  0.23549206  0.38642428  0.22766284    -0.60800
O43         O  0.17917898  0.35884795  0.21034188    -0.51700
C44         C  0.24648485  0.45118992  0.15910609     0.70300
O45         O  0.26847061  0.43903808  0.15898276    -0.46500
C46         C  0.20494413  0.36972489  0.08146320     0.75000
O47         O  0.26695060  0.36498579  0.16207268    -0.58400
O48         O  0.18091243  0.35852360  0.11088859    -0.48500
O49         O  0.21064526  0.32263261  0.16302253    -0.54800
C50         C  0.20224455  0.37022341  0.23968789     0.85200
O51         O  0.21290675  0.42666636  0.15948399    -0.56700
O52         O  0.23778826  0.38609583  0.09332459    -0.60000
In53       In  0.16487925  0.38196348  0.82934157     1.36900
C54         C  0.17959175  0.37872035  0.74974811     0.77700
O55         O  0.11798339  0.32488981  0.82687821    -0.60800
O56         O  0.10636516  0.36829281  0.83004383    -0.51700
C57         C  0.17616132  0.36779201  0.90569410     0.70300
O58         O  0.19122465  0.36190137  0.87447975    -0.46500
C59         C  0.21169696  0.45233873  0.83605414     0.75000
O60         O  0.18669692  0.36193667  0.77800577    -0.58400
O61         O  0.17739154  0.43967797  0.83393102    -0.48500
O62         O  0.16505496  0.39645365  0.76296790    -0.54800
C63         C  0.09381557  0.33408603  0.82856579     0.85200
O64         O  0.15453860  0.37921760  0.89721101    -0.56700
O65         O  0.22140175  0.42864447  0.83523132    -0.60000
In66       In  0.36836786  0.17716340  0.83676843     1.36900
C67         C  0.43918132  0.22403085  0.83092806     0.77700
O68         O  0.36918956  0.16806631  0.76877265    -0.60800
O69         O  0.34661312  0.20048329  0.78885836    -0.51700
C70         C  0.32144861  0.10611982  0.84185078     0.70300
O71         O  0.35582103  0.11890820  0.84026169    -0.46500
C72         C  0.35990549  0.19236564  0.91458728     0.75000
O73         O  0.42648477  0.18976290  0.83367538    -0.58400
O74         O  0.34325646  0.19696385  0.88441609    -0.48500
O75         O  0.41529095  0.23359155  0.83051237    -0.54800
C76         C  0.35439624  0.18640252  0.75846793     0.85200
O77         O  0.31186032  0.12989819  0.84197992    -0.56700
O78         O  0.38113240  0.18081454  0.90445516    -0.60000
C79         C  0.23899154  0.49180583  0.83881150    -0.00100
C80         C  0.27398183  0.00232780  0.85409190    -0.11900
C81         C  0.30144131  0.03925484  0.85542042     0.02200
C82         C  0.29383433  0.06655652  0.84197934    -0.00200
C83         C  0.25874332  0.05598275  0.82710287    -0.11900
C84         C  0.23163218  0.01910844  0.82480495     0.02100
H85         H  0.28006874  0.48156984  0.86478386     0.15000
H86         H  0.25275043  0.07663788  0.81581493     0.15000
C87         C  0.19752469  0.51015114  0.80526433     0.36700
C88         C  0.33690524  0.04820908  0.87096084     0.36600
N89         N  0.17032436  0.50282553  0.78917652    -0.43700
N90         N  0.36537084  0.05534562  0.88324698    -0.43700
C91         C  0.47886234  0.25153364  0.82947260    -0.00100
C92         C  0.48979391  0.28751575  0.84073251    -0.11900
C93         C  0.02681284  0.31479874  0.84083612     0.02200
C94         C  0.05402191  0.30646788  0.82886350    -0.00200
C95         C  0.04303800  0.27042101  0.81748752    -0.11900
C96         C  0.00594478  0.24304574  0.81772663     0.02100
H97         H  0.46930216  0.29432944  0.85035153     0.15000
H98         H  0.06351344  0.26352996  0.80811668     0.15000
C99         C  0.49655269  0.20683903  0.80483434     0.36700
C100        C  0.03576211  0.35056582  0.85491622     0.36600
N101        N  0.48893888  0.17780241  0.79448612    -0.43700
N102        N  0.04257886  0.37905752  0.86646992    -0.43100
C103        C  0.19639941  0.36519448  0.03621313    -0.00100
C104        C  0.22594300  0.38135997  0.00701491    -0.11900
C105        C  0.22000319  0.38071278  0.96397127     0.02200
C106        C  0.18389831  0.36350900  0.94940381    -0.00200
C107        C  0.15435913  0.34633598  0.97809871    -0.11900
C108        C  0.16021483  0.34666056  0.02118692     0.02100
H109        H  0.25389991  0.39566904  0.01776984     0.15000
H110        H  0.12657665  0.33327423  0.96679868     0.15000
C111        C  0.12846660  0.32812215  0.04878760     0.36700
C112        C  0.25132357  0.40047189  0.93585725     0.36600
N113        N  0.10275429  0.31300332  0.07052216    -0.43700
N114        N  0.27648869  0.41651939  0.91352193    -0.43700
C115        C  0.18601621  0.37664420  0.70439255    -0.00100
C116        C  0.19214913  0.34886515  0.69054690    -0.11900
C117        C  0.19176017  0.34175714  0.64782158     0.02200
C118        C  0.18555754  0.36299593  0.61811757    -0.00200
C119        C  0.18303913  0.39293584  0.63153950    -0.11900
C120        C  0.18304250  0.39987684  0.67423786     0.02100
H121        H  0.19538283  0.33141847  0.71316496     0.15000
H122        H  0.17881840  0.40965613  0.60880386     0.15000
C123        C  0.17871889  0.43033387  0.68586969     0.36700
C124        C  0.19700969  0.31202502  0.63534858     0.36600
N125        N  0.17511826  0.45467817  0.69506231    -0.43700
N126        N  0.20113158  0.28821359  0.62516010    -0.43700
C127        C  0.19223457  0.36555427  0.28503669    -0.00100
C128        C  0.22035345  0.38516538  0.31361986    -0.11900
C129        C  0.21346797  0.38109304  0.35688424     0.02200
C130        C  0.17777548  0.35672186  0.37255398    -0.00200
C131        C  0.14949188  0.33737156  0.34419232    -0.11900
C132        C  0.15629512  0.34172074  0.30077249     0.02100
H133        H  0.24811794  0.40353680  0.30223582     0.15000
H134        H  0.12203776  0.31837232  0.35603529     0.15000
C135        C  0.12610463  0.32047428  0.27347512     0.36700
C136        C  0.24404273  0.40065569  0.38432699     0.36600
N137        N  0.10184470  0.30341593  0.25166326    -0.43700
N138        N  0.26864732  0.41634269  0.40615940    -0.43700
C139        C  0.25845232  0.49090102  0.15950866    -0.00100
C140        C  0.23150191  0.00102580  0.16236744    -0.11900
C141        C  0.24095509  0.03781784  0.16470088     0.02200
C142        C  0.27828230  0.06576091  0.16389124    -0.00200
C143        C  0.30517541  0.05565914  0.16015438    -0.11900
C144        C  0.29573968  0.01888430  0.15812453     0.02100
H145        H  0.20272623  0.48004929  0.16340789     0.15000
H146        H  0.33396381  0.07661581  0.15925031     0.15000
C147        C  0.32514261  0.01100408  0.15507101     0.36700
C148        C  0.21161175  0.04575037  0.16837748     0.36600
N149        N  0.34881253  0.50481901  0.15266244    -0.43700
N150        N  0.18804560  0.05203042  0.17143395    -0.43700
C151        C  0.27899870  0.25122375  0.17044634    -0.00100
C152        C  0.24249292  0.24061989  0.18049699    -0.11900
C153        C  0.23025056  0.26580000  0.17832151     0.02200
C154        C  0.25493519  0.30272363  0.16615589    -0.00200
C155        C  0.29132142  0.31318735  0.15582797    -0.11900
C156        C  0.30338829  0.28794212  0.15731943     0.02100
H157        H  0.22343475  0.21259516  0.19028367     0.15000
H158        H  0.31037005  0.34112571  0.14571742     0.15000
C159        C  0.34055487  0.30041272  0.14324170     0.36700
C160        C  0.19235886  0.25284684  0.18947238     0.36600
N161        N  0.37023371  0.31038013  0.13160387    -0.43700
N162        N  0.16195645  0.24233418  0.19834802    -0.43700
C163        C  0.35405485  0.19805708  0.95891320    -0.00100
C164        C  0.38398431  0.21277756  0.98597157    -0.11900
C165        C  0.37875941  0.21332777  0.02945111     0.02200
C166        C  0.34280372  0.19746626  0.04657614    -0.00200
C167        C  0.31326696  0.18495215  0.01897726    -0.11900
C168        C  0.31858933  0.18532237  0.97564111     0.02100
H169        H  0.41144843  0.22336590  0.97314030     0.15000
H170        H  0.28552291  0.17345443  0.03125502     0.15000
C171        C  0.28675787  0.16970361  0.94948624     0.36700
C172        C  0.41068361  0.23035042  0.05537332     0.36600
N173        N  0.26122455  0.15710158  0.92857735    -0.43700
N174        N  0.43637138  0.24447038  0.07597353    -0.43700
C175        C  0.34813377  0.19188918  0.71398038    -0.00100
C176        C  0.34589723  0.22277092  0.70248876    -0.11900
C177        C  0.34489706  0.23163017  0.66022649     0.02200
C178        C  0.34584394  0.20910964  0.62844922    -0.00200
C179        C  0.34544957  0.17690404  0.64009697    -0.11900
C180        C  0.34672325  0.16818308  0.68225752     0.02100
H181        H  0.34634161  0.24086840  0.72649113     0.15000
H182        H  0.34571348  0.15915285  0.61608434     0.15000
C183        C  0.34673903  0.13476386  0.69173795     0.36700
C184        C  0.34301704  0.26403461  0.65055516     0.36600
N185        N  0.34672197  0.10793429  0.69908652    -0.43700
N186        N  0.34143966  0.28998038  0.64293421    -0.43700
C187        C  0.47487070  0.27589109  0.51122127    -0.00100
C188        C  0.00109440  0.31317332  0.50579644    -0.11900
C189        C  0.03871770  0.32533542  0.50431945     0.02200
C190        C  0.05088720  0.29985023  0.50862573    -0.00200
C191        C  0.02469109  0.26277204  0.51533986    -0.11900
C192        C  0.48717154  0.25058402  0.51654757     0.02100
H193        H  0.49221402  0.33293213  0.50173659     0.15000
H194        H  0.03347868  0.24291129  0.51908587     0.15000
C195        C  0.46231575  0.21174247  0.52256064     0.36700
C196        C  0.06376904  0.36396745  0.49705562     0.36600
N197        N  0.44265981  0.18055987  0.52721064    -0.43700
N198        N  0.08358091  0.39496661  0.49110578    -0.43700
C199        C  0.23166874  0.29070671  0.49535382    -0.00100
C200        C  0.26718762  0.31516221  0.47955546    -0.11900
C201        C  0.29475913  0.30619667  0.48007628     0.02200
C202        C  0.28708873  0.27193353  0.49653624    -0.00200
C203        C  0.25140331  0.24711862  0.51171129    -0.11900
C204        C  0.22385254  0.25630142  0.51169091     0.02100
H205        H  0.27359558  0.34160367  0.46668101     0.15000
H206        H  0.24523969  0.22081074  0.52477119     0.15000
C207        C  0.18866002  0.23071986  0.53068226     0.36700
C208        C  0.33036551  0.33245185  0.46258343     0.36600
N209        N  0.16061380  0.21025511  0.54626776    -0.43700
N210        N  0.35889818  0.35347218  0.44853424    -0.43700
C211        C  0.34773877  0.19371875  0.29459650    -0.00100
C212        C  0.32688141  0.16634010  0.32493827    -0.11900
C213        C  0.33180174  0.17336576  0.36789017     0.02200
C214        C  0.35720361  0.20890483  0.38130289    -0.00200
C215        C  0.37943999  0.23572317  0.35089770    -0.11900
C216        C  0.37528277  0.22833431  0.30797046     0.02100
H217        H  0.30605606  0.13943744  0.31501081     0.15000
H218        H  0.39967957  0.26295002  0.36058344     0.15000
C219        C  0.39817777  0.25745554  0.27845918     0.36700
C220        C  0.30969410  0.14378957  0.39723119     0.36600
N221        N  0.41665956  0.28080948  0.25488762    -0.43700
N222        N  0.29225930  0.12006927  0.42086552    -0.43700
In223      In  0.36481146  0.74123415  0.50413175     1.36900
C224        C  0.35991441  0.71971299  0.42591063     0.77700
O225        O  0.30708871  0.72817567  0.50058137    -0.60800
O226        O  0.34962655  0.78442265  0.49956934    -0.51700
C227        C  0.35065843  0.71997147  0.58343340     0.70300
O228        O  0.34237296  0.69724891  0.55411519    -0.46500
C229        C  0.43528584  0.76414015  0.50950972     0.75000
O230        O  0.34547758  0.69713725  0.45655604    -0.58400
O231        O  0.42363522  0.78642175  0.50577648    -0.48500
O232        O  0.37661588  0.75296874  0.43595287    -0.54800
C233        C  0.31548693  0.76136153  0.49877009     0.85200
O234        O  0.36529052  0.75308044  0.57151605    -0.56700
O235        O  0.41052104  0.73080799  0.51083306    -0.60000
In236      In  0.31390182  0.67623761  0.17212512     1.36900
C237        C  0.29080480  0.72363751  0.17301312     0.77700
O238        O  0.30378367  0.66621873  0.24061621    -0.60800
O239        O  0.35912784  0.70083709  0.21911181    -0.51700
C240        C  0.29047603  0.60539475  0.16712603     0.70300
O241        O  0.26870475  0.61754037  0.17162937    -0.46500
C242        C  0.33403344  0.69110772  0.09229845     0.75000
O243        O  0.26852198  0.68933323  0.17459056    -0.58400
O244        O  0.35757536  0.69940398  0.12081621    -0.48500
O245        O  0.32423500  0.73277294  0.17308054    -0.54800
C246        C  0.33695170  0.68653881  0.25013194     0.85200
O247        O  0.32407635  0.62985624  0.16566097    -0.56700
O248        O  0.30115124  0.67541028  0.10545970    -0.60000
In249      In  0.15961110  0.82886969  0.49766890     1.36900
C250        C  0.17722288  0.85181480  0.57423432     0.77700
O251        O  0.11597304  0.84329870  0.50281248    -0.60800
O252        O  0.10026199  0.78683785  0.50377647    -0.51700
C253        C  0.17007977  0.84796290  0.41781210     0.70300
O254        O  0.18581430  0.87123811  0.44624430    -0.46500
C255        C  0.20466046  0.80320233  0.49569164     0.75000
O256        O  0.18460456  0.87421834  0.54369730    -0.58400
O257        O  0.17015662  0.78197495  0.49918464    -0.48500
O258        O  0.16060172  0.81842860  0.56496947    -0.54800
C259        C  0.09012657  0.81037622  0.50511369     0.85200
O260        O  0.14793084  0.81570959  0.43076949    -0.56700
O261        O  0.21511575  0.83685683  0.49252635    -0.60000
In262      In  0.22353239  0.88030056  0.16048479     1.36900
C263        C  0.24385950  0.83085572  0.16369392     0.77700
O264        O  0.23549481  0.88642387  0.22765844    -0.60800
O265        O  0.17918191  0.85884569  0.21033627    -0.51700
C266        C  0.24648150  0.95118902  0.15910473     0.70300
O267        O  0.26846942  0.93903972  0.15898278    -0.46500
C268        C  0.20494903  0.86971657  0.08145768     0.75000
O269        O  0.26695745  0.86498766  0.16206646    -0.58400
O270        O  0.18091708  0.85851693  0.11088268    -0.48500
O271        O  0.21065254  0.82263307  0.16302569    -0.54800
C272        C  0.20224709  0.87022256  0.23968278     0.85200
O273        O  0.21290434  0.92666307  0.15947652    -0.56700
O274        O  0.23779307  0.88609142  0.09331955    -0.60000
In275      In  0.16488408  0.88196103  0.82934092     1.36900
C276        C  0.17959564  0.87872239  0.74974533     0.77700
O277        O  0.11798748  0.82488734  0.82687623    -0.60800
O278        O  0.10637019  0.86829077  0.83004146    -0.51700
C279        C  0.17616663  0.86777942  0.90568912     0.70300
O280        O  0.19123293  0.86189640  0.87447181    -0.46500
C281        C  0.21169602  0.95233765  0.83606377     0.75000
O282        O  0.18670503  0.86194027  0.77800066    -0.58400
O283        O  0.17739016  0.93967375  0.83394075    -0.48500
O284        O  0.16505663  0.89645241  0.76296885    -0.54800
C285        C  0.09381993  0.83408399  0.82856253     0.85200
O286        O  0.15454106  0.87920246  0.89721053    -0.56700
O287        O  0.22140392  0.92864595  0.83523595    -0.60000
In288      In  0.36837064  0.67716347  0.83676680     1.36900
C289        C  0.43918439  0.72403072  0.83092144     0.77700
O290        O  0.36919005  0.66806641  0.76877042    -0.60800
O291        O  0.34661272  0.70048181  0.78885894    -0.51700
C292        C  0.32145187  0.60611973  0.84184616     0.70300
O293        O  0.35582436  0.61890843  0.84025973    -0.46500
C294        C  0.35991053  0.69236620  0.91458690     0.75000
O295        O  0.42648744  0.68976269  0.83366829    -0.58400
O296        O  0.34326191  0.69696572  0.88441623    -0.48500
O297        O  0.41529411  0.73359158  0.83050850    -0.54800
C298        C  0.35439545  0.68640179  0.75846736     0.85200
O299        O  0.31186319  0.62989782  0.84197585    -0.56700
O300        O  0.38113573  0.68081332  0.90445383    -0.60000
C301        C  0.23898810  0.99180530  0.83882505    -0.00100
C302        C  0.27398375  0.50232742  0.85408236    -0.11900
C303        C  0.30144334  0.53925421  0.85541370     0.02200
C304        C  0.29383796  0.56655652  0.84197042    -0.00200
C305        C  0.25874919  0.55598346  0.82708719    -0.11900
C306        C  0.23163807  0.51910949  0.82478683     0.02100
H307        H  0.28006841  0.98157123  0.86479040     0.15000
H308        H  0.25275792  0.57663944  0.81579636     0.15000
C309        C  0.19751637  0.01014954  0.80528847     0.36700
C310        C  0.33690498  0.54820778  0.87096109     0.36600
N311        N  0.17031417  0.00282398  0.78920534    -0.43700
N312        N  0.36536867  0.55534362  0.88325318    -0.43700
C313        C  0.47886577  0.75153330  0.82946440    -0.00100
C314        C  0.48979753  0.78751766  0.84071496    -0.11900
C315        C  0.02681631  0.81480043  0.84081789     0.02200
C316        C  0.05402591  0.80646644  0.82885793    -0.00200
C317        C  0.04304191  0.77041740  0.81749147    -0.11900
C318        C  0.00594840  0.74304289  0.81772844     0.02100
H319        H  0.46930624  0.79433372  0.85032551     0.15000
H320        H  0.06351772  0.76352395  0.80812927     0.15000
C321        C  0.49655644  0.70683462  0.80484186     0.36700
C322        C  0.03576476  0.85057134  0.85488297     0.36600
N323        N  0.48894280  0.67779698  0.79449815    -0.43700
N324        N  0.04258086  0.87906641  0.86642368    -0.43100
C325        C  0.19640439  0.86518013  0.03620750    -0.00100
C326        C  0.22594806  0.88133971  0.00700886    -0.11900
C327        C  0.22000819  0.88069086  0.96396492     0.02200
C328        C  0.18390337  0.86349156  0.94939769    -0.00200
C329        C  0.15436410  0.84632127  0.97809296    -0.11900
C330        C  0.16021980  0.84664743  0.02118133     0.02100
H331        H  0.25390472  0.89564625  0.01776351     0.15000
H332        H  0.12658211  0.83326232  0.96679343     0.15000
C333        C  0.12847124  0.82811353  0.04878225     0.36700
C334        C  0.25132901  0.90044500  0.93585031     0.36600
N335        N  0.10275859  0.81299831  0.07051683    -0.43700
N336        N  0.27649420  0.91648824  0.91351411    -0.43700
C337        C  0.18601749  0.87664817  0.70438843    -0.00100
C338        C  0.19216025  0.84887627  0.69053903    -0.11900
C339        C  0.19176876  0.84176893  0.64781303     0.02200
C340        C  0.18555492  0.86300201  0.61811246    -0.00200
C341        C  0.18302641  0.89293525  0.63153750    -0.11900
C342        C  0.18303089  0.89987477  0.67423620     0.02100
H343        H  0.19540336  0.83143418  0.71315477     0.15000
H344        H  0.17879605  0.90965071  0.60880377     0.15000
C345        C  0.17869288  0.93032266  0.68587082     0.36700
C346        C  0.19702727  0.81204340  0.63533531     0.36600
N347        N  0.17508010  0.95465914  0.69506549    -0.43700
N348        N  0.20115620  0.78823728  0.62514262    -0.43700
C349        C  0.19223628  0.86555527  0.28503134    -0.00100
C350        C  0.22035304  0.88517456  0.31361414    -0.11900
C351        C  0.21346679  0.88110469  0.35687857     0.02200
C352        C  0.17777608  0.85672711  0.37254881    -0.00200
C353        C  0.14949457  0.83736974  0.34418707    -0.11900
C354        C  0.15629825  0.84171647  0.30076738     0.02100
H355        H  0.24811578  0.90355044  0.30222997     0.15000
H356        H  0.12204105  0.81836570  0.35603036     0.15000
C357        C  0.12611014  0.82046127  0.27347046     0.36700
C358        C  0.24403966  0.90067791  0.38432084     0.36600
N359        N  0.10185203  0.80339558  0.25165940    -0.43700
N360        N  0.26864293  0.91637403  0.40615231    -0.43700
C361        C  0.25844621  0.99089987  0.15951202    -0.00100
C362        C  0.23150968  0.50102759  0.16238468    -0.11900
C363        C  0.24096482  0.53781982  0.16471716     0.02200
C364        C  0.27829215  0.56576261  0.16388622    -0.00200
C365        C  0.30518365  0.55566036  0.16012603    -0.11900
C366        C  0.29574582  0.51888469  0.15809606     0.02100
H367        H  0.20271783  0.98004659  0.16337245     0.15000
H368        H  0.33397140  0.57661659  0.15920310     0.15000
C369        C  0.32514634  0.51100279  0.15501406     0.36700
C370        C  0.21162272  0.54575212  0.16841705     0.36600
N371        N  0.34881093  0.00482197  0.15274265    -0.43700
N372        N  0.18805715  0.55203136  0.17149198    -0.43700
C373        C  0.27900522  0.75122370  0.17044129    -0.00100
C374        C  0.24250487  0.74062528  0.18051489    -0.11900
C375        C  0.23026359  0.76580642  0.17834286     0.02200
C376        C  0.25494370  0.80272561  0.16615566    -0.00200
C377        C  0.29132435  0.81318375  0.15580450    -0.11900
C378        C  0.30338995  0.78793729  0.15729340     0.02100
H379        H  0.22345004  0.71260354  0.19031892     0.15000
H380        H  0.31036946  0.84111909  0.14567696     0.15000
C381        C  0.34054875  0.80039994  0.14319095     0.36700
C382        C  0.19237883  0.75286039  0.18952247     0.36600
N383        N  0.37022118  0.81036052  0.13153360    -0.43700
N384        N  0.16198205  0.74235401  0.19842166    -0.43700
C385        C  0.35406060  0.69805761  0.95891324    -0.00100
C386        C  0.38399062  0.71277905  0.98597107    -0.11900
C387        C  0.37876600  0.71332916  0.02945092     0.02200
C388        C  0.34281043  0.69746572  0.04657670    -0.00200
C389        C  0.31327309  0.68495038  0.01897837    -0.11900
C390        C  0.31859519  0.68532183  0.97564196     0.02100
H391        H  0.41145402  0.72336819  0.97313952     0.15000
H392        H  0.28552955  0.67345186  0.03125638     0.15000
C393        C  0.28676349  0.66970410  0.94948741     0.36700
C394        C  0.41069042  0.73035375  0.05537267     0.36600
N395        N  0.26123009  0.65710324  0.92857868    -0.43700
N396        N  0.43637810  0.74447534  0.07597284    -0.43700
C397        C  0.34813161  0.69188901  0.71398041    -0.00100
C398        C  0.34589315  0.72277009  0.70249124    -0.11900
C399        C  0.34489291  0.73163140  0.66022986     0.02200
C400        C  0.34583959  0.70911230  0.62845058    -0.00200
C401        C  0.34544681  0.67690700  0.64009583    -0.11900
C402        C  0.34672266  0.66818511  0.68225549     0.02100
H403        H  0.34633729  0.74086678  0.72649561     0.15000
H404        H  0.34571175  0.65915738  0.61608152     0.15000
C405        C  0.34674498  0.63476871  0.69173246     0.36700
C406        C  0.34301532  0.76403767  0.65056170     0.36600
N407        N  0.34673419  0.60794185  0.69907778    -0.43700
N408        N  0.34144055  0.78998538  0.64294439    -0.43700
C409        C  0.47486770  0.77589875  0.51121694    -0.00100
C410        C  0.00109180  0.81317939  0.50575328    -0.11900
C411        C  0.03871469  0.82533982  0.50427155     0.02200
C412        C  0.05088447  0.79985759  0.50861405    -0.00200
C413        C  0.02468935  0.76278418  0.51536594    -0.11900
C414        C  0.48716915  0.75059500  0.51657456     0.02100
H415        H  0.49220947  0.83293371  0.50166984     0.15000
H416        H  0.03347769  0.74292639  0.51914051     0.15000
C417        C  0.46231371  0.71175783  0.52262903     0.36700
C418        C  0.06376506  0.86396579  0.49696131     0.36600
N419        N  0.44265771  0.68057857  0.52731248    -0.43700
N420        N  0.08357637  0.89495979  0.49097384    -0.43700
C421        C  0.23166744  0.79071510  0.49536075    -0.00100
C422        C  0.26718132  0.81516433  0.47954436    -0.11900
C423        C  0.29475286  0.80619880  0.48006273     0.02200
C424        C  0.28708700  0.77194181  0.49653842    -0.00200
C425        C  0.25140676  0.74713356  0.51173327    -0.11900
C426        C  0.22385660  0.75631706  0.51171654     0.02100
H427        H  0.27358504  0.84160088  0.46665658     0.15000
H428        H  0.24524753  0.72083126  0.52480700     0.15000
C429        C  0.18867247  0.73074626  0.53073390     0.36700
C430        C  0.33035362  0.83244652  0.46255030     0.36600
N431        N  0.16063384  0.71029017  0.54634174    -0.43700
N432        N  0.35888144  0.85346158  0.44848506    -0.43700
C433        C  0.34773466  0.69371347  0.29460249    -0.00100
C434        C  0.32686618  0.66633887  0.32494415    -0.11900
C435        C  0.33178362  0.67336547  0.36789617     0.02200
C436        C  0.35719423  0.70890165  0.38130857    -0.00200
C437        C  0.37944066  0.73571528  0.35090429    -0.11900
C438        C  0.37528626  0.72832498  0.30797738     0.02100
H439        H  0.30603479  0.63943935  0.31501660     0.15000
H440        H  0.39968649  0.76293901  0.36059025     0.15000
C441        C  0.39819377  0.75744141  0.27846715     0.36700
C442        C  0.30966372  0.64379393  0.39723723     0.36600
N443        N  0.41668576  0.78079144  0.25489660    -0.43700
N444        N  0.29221884  0.62007697  0.42087146    -0.43700
In445      In  0.86481519  0.24122765  0.50413010     1.36900
C446        C  0.85992303  0.21971246  0.42590646     0.77700
O447        O  0.80709156  0.22816702  0.50057519    -0.60800
O448        O  0.84962810  0.28441425  0.49957433    -0.51700
C449        C  0.85066263  0.21996648  0.58343153     0.70300
O450        O  0.84237738  0.19724298  0.55411423    -0.46500
C451        C  0.93528858  0.26413221  0.50951158     0.75000
O452        O  0.84548302  0.19713478  0.45654977    -0.58400
O453        O  0.92363901  0.28641444  0.50577471    -0.48500
O454        O  0.87662608  0.25296739  0.43595222    -0.54800
C455        C  0.81548880  0.26135275  0.49876948     0.85200
O456        O  0.86529437  0.25307516  0.57151313    -0.56700
O457        O  0.91052297  0.23080028  0.51083761    -0.60000
In458      In  0.81389414  0.17623753  0.17212396     1.36900
C459        C  0.79079803  0.22363763  0.17301693     0.77700
O460        O  0.80378281  0.16621893  0.24061588    -0.60800
O461        O  0.85912415  0.20084275  0.21910503    -0.51700
C462        C  0.79046557  0.10539355  0.16712818     0.70300
O463        O  0.76869466  0.11753960  0.17163218    -0.46500
C464        C  0.83402636  0.19110882  0.09229741     0.75000
O465        O  0.76851480  0.18933335  0.17458901    -0.58400
O466        O  0.85756729  0.19939777  0.12081475    -0.48500
O467        O  0.82422798  0.23277247  0.17308732    -0.54800
C468        C  0.83695135  0.18654251  0.25012754     0.85200
O469        O  0.82406578  0.12985495  0.16566010    -0.56700
O470        O  0.80114461  0.17541850  0.10545888    -0.60000
In471      In  0.65961419  0.32886389  0.49767294     1.36900
C472        C  0.67722725  0.35180908  0.57423870     0.77700
O473        O  0.61597613  0.34329320  0.50281893    -0.60800
O474        O  0.60026597  0.28683266  0.50378525    -0.51700
C475        C  0.67007920  0.34795721  0.41781701     0.70300
O476        O  0.68581623  0.37123193  0.44624903    -0.46500
C477        C  0.70466226  0.30319465  0.49568724     0.75000
O478        O  0.68460932  0.37421267  0.54370166    -0.58400
O479        O  0.67015839  0.28196822  0.49918177    -0.48500
O480        O  0.66060676  0.31842303  0.56497320    -0.54800
C481        C  0.59013005  0.31037063  0.50512330     0.85200
O482        O  0.64792854  0.31570431  0.43077414    -0.56700
O483        O  0.71511819  0.33684943  0.49252491    -0.60000
In484      In  0.72352823  0.38030129  0.16048968     1.36900
C485        C  0.74385158  0.33085426  0.16369457     0.77700
O486        O  0.73549188  0.38642461  0.22766281    -0.60800
O487        O  0.67917876  0.35884794  0.21034202    -0.51700
C488        C  0.74648441  0.45118994  0.15910588     0.70300
O489        O  0.76847019  0.43903812  0.15898223    -0.46500
C490        C  0.70494349  0.36972486  0.08146338     0.75000
O491        O  0.76695040  0.36498595  0.16207297    -0.58400
O492        O  0.68091190  0.35852364  0.11088886    -0.48500
O493        O  0.71064508  0.32263278  0.16302223    -0.54800
C494        C  0.70224441  0.37022361  0.23968796     0.85200
O495        O  0.71290631  0.42666637  0.15948407    -0.56700
O496        O  0.73778771  0.38609575  0.09332463    -0.60000
In497      In  0.66487900  0.38196368  0.82934155     1.36900
C498        C  0.67959141  0.37872052  0.74974806     0.77700
O499        O  0.61798335  0.32488999  0.82687826    -0.60800
O500        O  0.60636495  0.36829292  0.83004329    -0.51700
C501        C  0.67616058  0.36779195  0.90569420     0.70300
O502        O  0.69122392  0.36190118  0.87447995    -0.46500
C503        C  0.71169682  0.45233875  0.83605428     0.75000
O504        O  0.68669667  0.36193695  0.77800574    -0.58400
O505        O  0.67739141  0.43967808  0.83393111    -0.48500
O506        O  0.66505470  0.39645391  0.76296789    -0.54800
C507        C  0.59381547  0.33408616  0.82856558     0.85200
O508        O  0.65453800  0.37921767  0.89721095    -0.56700
O509        O  0.72140158  0.42864446  0.83523139    -0.60000
In510      In  0.86836776  0.17716340  0.83676838     1.36900
C511        C  0.93918132  0.22403095  0.83092819     0.77700
O512        O  0.86918978  0.16806651  0.76877261    -0.60800
O513        O  0.84661294  0.20048315  0.78885832    -0.51700
C514        C  0.82144845  0.10611983  0.84185020     0.70300
O515        O  0.85582086  0.11890822  0.84026107    -0.46500
C516        C  0.85990536  0.19236558  0.91458716     0.75000
O517        O  0.92648479  0.18976300  0.83367565    -0.58400
O518        O  0.84325636  0.19696386  0.88441599    -0.48500
O519        O  0.91529090  0.23359158  0.83051234    -0.54800
C520        C  0.85439624  0.18640253  0.75846788     0.85200
O521        O  0.81186016  0.12989821  0.84197962    -0.56700
O522        O  0.88113211  0.18081429  0.90445509    -0.60000
C523        C  0.73899142  0.49180581  0.83881172    -0.00100
C524        C  0.77398203  0.00232791  0.85409038    -0.11900
C525        C  0.80144151  0.03925486  0.85541885     0.02200
C526        C  0.79383417  0.06655654  0.84197868    -0.00200
C527        C  0.75874286  0.05598272  0.82710315    -0.11900
C528        C  0.73163167  0.01910838  0.82480536     0.02100
H529        H  0.78006823  0.48156963  0.86478536     0.15000
H530        H  0.75274969  0.07663789  0.81581592     0.15000
C531        C  0.69752514  0.51015106  0.80526309     0.36700
C532        C  0.83690579  0.04820912  0.87095811     0.36600
N533        N  0.67032511  0.50282551  0.78917461    -0.43700
N534        N  0.86537163  0.05534567  0.88324347    -0.43700
C535        C  0.97886238  0.25153372  0.82947275    -0.00100
C536        C  0.98979391  0.28751577  0.84073318    -0.11900
C537        C  0.52681272  0.31479882  0.84083552     0.02200
C538        C  0.55402187  0.30646788  0.82886327    -0.00200
C539        C  0.54303786  0.27042098  0.81748779    -0.11900
C540        C  0.50594482  0.24304559  0.81772692     0.02100
H541        H  0.96930271  0.29432927  0.85035230     0.15000
H542        H  0.56351413  0.26352964  0.80811689     0.15000
C543        C  0.99655257  0.20683931  0.80483339     0.36700
C544        C  0.53576197  0.35056602  0.85491526     0.36600
N545        N  0.98893846  0.17780277  0.79448459    -0.43700
N546        N  0.54257863  0.37905777  0.86646864    -0.43100
C547        C  0.69639869  0.36519452  0.03621332    -0.00100
C548        C  0.72594204  0.38135988  0.00701500    -0.11900
C549        C  0.72000241  0.38071285  0.96397147     0.02200
C550        C  0.68389751  0.36350904  0.94940398    -0.00200
C551        C  0.65435832  0.34633618  0.97809889    -0.11900
C552        C  0.66021406  0.34666083  0.02118712     0.02100
H553        H  0.75390003  0.39566948  0.01777031     0.15000
H554        H  0.62657604  0.33327464  0.96679892     0.15000
C555        C  0.62846584  0.32812265  0.04878788     0.36700
C556        C  0.75132274  0.40047210  0.93585745     0.36600
N557        N  0.60275363  0.31300387  0.07052251    -0.43700
N558        N  0.77648773  0.41651967  0.91352199    -0.43700
C559        C  0.68601566  0.37664421  0.70439246    -0.00100
C560        C  0.69214921  0.34886546  0.69054691    -0.11900
C561        C  0.69176030  0.34175739  0.64782160     0.02200
C562        C  0.68555735  0.36299589  0.61811753    -0.00200
C563        C  0.68303820  0.39293539  0.63153939    -0.11900
C564        C  0.68304129  0.39987635  0.67423766     0.02100
H565        H  0.69538338  0.33141926  0.71316487     0.15000
H566        H  0.67881703  0.40965545  0.60880349     0.15000
C567        C  0.67871674  0.43033294  0.68586932     0.36700
C568        C  0.69701044  0.31202558  0.63534866     0.36600
N569        N  0.67511549  0.45467683  0.69506170    -0.43700
N570        N  0.70113278  0.28821443  0.62516039    -0.43700
C571        C  0.69223452  0.36555444  0.28503682    -0.00100
C572        C  0.72035360  0.38516514  0.31361998    -0.11900
C573        C  0.71346820  0.38109276  0.35688437     0.02200
C574        C  0.67777566  0.35672186  0.37255418    -0.00200
C575        C  0.64949190  0.33737200  0.34419258    -0.11900
C576        C  0.65629504  0.34172126  0.30077275     0.02100
H577        H  0.74811809  0.40353620  0.30223594     0.15000
H578        H  0.62203769  0.31837306  0.35603565     0.15000
C579        C  0.62610419  0.32047542  0.27347547     0.36700
C580        C  0.74404311  0.40065509  0.38432706     0.36600
N581        N  0.60184396  0.30341759  0.25166389    -0.43700
N582        N  0.76864774  0.41634188  0.40615941    -0.43700
C583        C  0.75845186  0.49090105  0.15950839    -0.00100
C584        C  0.73150193  0.00102620  0.16236653    -0.11900
C585        C  0.74095529  0.03781832  0.16470005     0.02200
C586        C  0.77828245  0.06576130  0.16389110    -0.00200
C587        C  0.80517560  0.05565949  0.16015476    -0.11900
C588        C  0.79573982  0.01888463  0.15812479     0.02100
H589        H  0.70272578  0.48004929  0.16340754     0.15000
H590        H  0.83396393  0.07661606  0.15925112     0.15000
C591        C  0.82514270  0.01100436  0.15507166     0.36700
C592        C  0.71161191  0.04575095  0.16837577     0.36600
N593        N  0.84881207  0.50481902  0.15266246    -0.43700
N594        N  0.68804577  0.05203103  0.17143120    -0.43700
C595        C  0.77899893  0.25122416  0.17044652    -0.00100
C596        C  0.74249275  0.24061991  0.18049516    -0.11900
C597        C  0.73025017  0.26579978  0.17831948     0.02200
C598        C  0.75493510  0.30272384  0.16615571    -0.00200
C599        C  0.79132178  0.31318798  0.15582985    -0.11900
C600        C  0.80338887  0.28794298  0.15732135     0.02100
H601        H  0.72343387  0.21259428  0.19028047     0.15000
H602        H  0.81037106  0.34112717  0.14572070     0.15000
C603        C  0.84055614  0.30041429  0.14324581     0.36700
C604        C  0.69235781  0.25284586  0.18946770     0.36600
N605        N  0.87023559  0.31038245  0.13160982    -0.43700
N606        N  0.66195487  0.24233240  0.19834115    -0.43700
C607        C  0.85405478  0.19805709  0.95891302    -0.00100
C608        C  0.88398433  0.21277736  0.98597132    -0.11900
C609        C  0.87875944  0.21332757  0.02945088     0.02200
C610        C  0.84280387  0.19746641  0.04657592    -0.00200
C611        C  0.81326686  0.18495224  0.01897716    -0.11900
C612        C  0.81858935  0.18532254  0.97564094     0.02100
H613        H  0.91144815  0.22336544  0.97314013     0.15000
H614        H  0.78552380  0.17345498  0.03125450     0.15000
C615        C  0.78675779  0.16970386  0.94948615     0.36700
C616        C  0.91068372  0.23035020  0.05537303     0.36600
N617        N  0.76122438  0.15710190  0.92857741    -0.43700
N618        N  0.93637147  0.24447035  0.07597321    -0.43700
C619        C  0.84813368  0.19188905  0.71398032    -0.00100
C620        C  0.84589699  0.22277063  0.70248848    -0.11900
C621        C  0.84489662  0.23162967  0.66022624     0.02200
C622        C  0.84584344  0.20910897  0.62844911    -0.00200
C623        C  0.84544910  0.17690345  0.64009702    -0.11900
C624        C  0.84672298  0.16818274  0.68225759     0.02100
H625        H  0.84634141  0.24086846  0.72649102     0.15000
H626        H  0.84571294  0.15915210  0.61608441     0.15000
C627        C  0.84673872  0.13476357  0.69173828     0.36700
C628        C  0.84301659  0.26403406  0.65055474     0.36600
N629        N  0.84672165  0.10793403  0.69908713    -0.43700
N630        N  0.84143923  0.28997983  0.64293361    -0.43700
C631        C  0.97487015  0.27588988  0.51122097    -0.00100
C632        C  0.50109500  0.31317438  0.50579423    -0.11900
C633        C  0.53871831  0.32533605  0.50431701     0.02200
C634        C  0.55088762  0.29985090  0.50862562    -0.00200
C635        C  0.52469142  0.26277306  0.51534213    -0.11900
C636        C  0.98717115  0.25058270  0.51654498     0.02100
H637        H  0.99221298  0.33293182  0.50174053     0.15000
H638        H  0.53347888  0.24291238  0.51909004     0.15000
C639        C  0.96231551  0.21174074  0.52255476     0.36700
C640        C  0.56376978  0.36396773  0.49705025     0.36600
N641        N  0.94265985  0.18055786  0.52720215    -0.43700
N642        N  0.58358170  0.39496650  0.49109797    -0.43700
C643        C  0.73166877  0.29070639  0.49535389    -0.00100
C644        C  0.76718768  0.31516170  0.47955571    -0.11900
C645        C  0.79475910  0.30619614  0.48007629     0.02200
C646        C  0.78708854  0.27193288  0.49653607    -0.00200
C647        C  0.75140311  0.24711804  0.51171122    -0.11900
C648        C  0.72385244  0.25630103  0.51169093     0.02100
H649        H  0.77359595  0.34160402  0.46668104     0.15000
H650        H  0.74523945  0.22081038  0.52477100     0.15000
C651        C  0.68865994  0.23071958  0.53068233     0.36700
C652        C  0.83036549  0.33245122  0.46258339     0.36600
N653        N  0.66061376  0.21025487  0.54626801    -0.43700
N654        N  0.85889811  0.35347141  0.44853395    -0.43700
C655        C  0.84773853  0.19371830  0.29459650    -0.00100
C656        C  0.82688039  0.16633982  0.32493810    -0.11900
C657        C  0.83180058  0.17336524  0.36789004     0.02200
C658        C  0.85720325  0.20890399  0.38130297    -0.00200
C659        C  0.87944040  0.23572207  0.35089800    -0.11900
C660        C  0.87528321  0.22833344  0.30797074     0.02100
H661        H  0.80605429  0.13943730  0.31501040     0.15000
H662        H  0.89968070  0.26294873  0.36058396     0.15000
C663        C  0.89817911  0.25745444  0.27845971     0.36700
C664        C  0.80969192  0.14378932  0.39723090     0.36600
N665        N  0.91666157  0.28080814  0.25488824    -0.43700
N666        N  0.79225628  0.12006926  0.42086520    -0.43700
In667      In  0.86481194  0.74123505  0.50413176     1.36900
C668        C  0.85991487  0.71971407  0.42591052     0.77700
O669        O  0.80708908  0.72817630  0.50058173    -0.60800
O670        O  0.84962675  0.78442337  0.49956938    -0.51700
C671        C  0.85065902  0.71997227  0.58343337     0.70300
O672        O  0.84237364  0.69724975  0.55411514    -0.46500
C673        C  0.93528637  0.76414125  0.50950997     0.75000
O674        O  0.84547825  0.69713828  0.45655593    -0.58400
O675        O  0.92363575  0.78642283  0.50577677    -0.48500
O676        O  0.87661609  0.75296981  0.43595282    -0.54800
C677        C  0.81548715  0.76136211  0.49877035     0.85200
O678        O  0.86529095  0.75308124  0.57151607    -0.56700
O679        O  0.91052158  0.73080907  0.51083306    -0.60000
In680      In  0.81390131  0.67623765  0.17212517     1.36900
C681        C  0.79080433  0.72363754  0.17301328     0.77700
O682        O  0.80378366  0.66621897  0.24061645    -0.60800
O683        O  0.85912761  0.70083753  0.21911155    -0.51700
C684        C  0.79047556  0.60539475  0.16712604     0.70300
O685        O  0.76870431  0.61754037  0.17162938    -0.46500
C686        C  0.83403325  0.69110785  0.09229854     0.75000
O687        O  0.76852143  0.68933326  0.17459089    -0.58400
O688        O  0.85757508  0.69940409  0.12081640    -0.48500
O689        O  0.82423452  0.73277292  0.17308055    -0.54800
C690        C  0.83695174  0.68653929  0.25013189     0.85200
O691        O  0.82407592  0.62985627  0.16566099    -0.56700
O692        O  0.80115103  0.67541053  0.10545970    -0.60000
In693      In  0.65961097  0.82886973  0.49766884     1.36900
C694        C  0.67722317  0.85181519  0.57423409     0.77700
O695        O  0.61597260  0.84329844  0.50281253    -0.60800
O696        O  0.60026202  0.78683772  0.50377623    -0.51700
C697        C  0.67007960  0.84796273  0.41781195     0.70300
O698        O  0.68581384  0.87123802  0.44624414    -0.46500
C699        C  0.70466051  0.80320260  0.49569171     0.75000
O700        O  0.68460472  0.87421861  0.54369699    -0.58400
O701        O  0.67015673  0.78197517  0.49918521    -0.48500
O702        O  0.66060191  0.81842894  0.56496941    -0.54800
C703        C  0.59012631  0.81037585  0.50511358     0.85200
O704        O  0.64793083  0.81570938  0.43076934    -0.56700
O705        O  0.71511572  0.83685706  0.49252598    -0.60000
In706      In  0.72353245  0.88030088  0.16048475     1.36900
C707        C  0.74385948  0.83085599  0.16369400     0.77700
O708        O  0.73549499  0.88642415  0.22765841    -0.60800
O709        O  0.67918207  0.85884596  0.21033623    -0.51700
C710        C  0.74648153  0.95118939  0.15910449     0.70300
O711        O  0.76846940  0.93904003  0.15898278    -0.46500
C712        C  0.70494934  0.86971678  0.08145760     0.75000
O713        O  0.76695751  0.86498792  0.16206616    -0.58400
O714        O  0.68091732  0.85851724  0.11088252    -0.48500
O715        O  0.71065253  0.82263340  0.16302599    -0.54800
C716        C  0.70224725  0.87022276  0.23968273     0.85200
O717        O  0.71290437  0.92666348  0.15947620    -0.56700
O718        O  0.73779337  0.88609165  0.09331958    -0.60000
In719      In  0.66488433  0.88196080  0.82934080     1.36900
C720        C  0.67959600  0.87872231  0.74974513     0.77700
O721        O  0.61798771  0.82488701  0.82687620    -0.60800
O722        O  0.60637048  0.86829048  0.83004147    -0.51700
C723        C  0.67616722  0.86777927  0.90568893     0.70300
O724        O  0.69123350  0.86189634  0.87447153    -0.46500
C725        C  0.71169602  0.95233753  0.83606335     0.75000
O726        O  0.68670551  0.86194027  0.77800045    -0.58400
O727        O  0.67739014  0.93967344  0.83394052    -0.48500
O728        O  0.66505677  0.89645210  0.76296867    -0.54800
C729        C  0.59382019  0.83408369  0.82856253     0.85200
O730        O  0.65454155  0.87920223  0.89721046    -0.56700
O731        O  0.72140410  0.92864595  0.83523540    -0.60000
In732      In  0.86837050  0.67716344  0.83676679     1.36900
C733        C  0.93918424  0.72403074  0.83092155     0.77700
O734        O  0.86919007  0.66806646  0.76877042    -0.60800
O735        O  0.84661292  0.70048207  0.78885878    -0.51700
C736        C  0.82145173  0.60611968  0.84184629     0.70300
O737        O  0.85582420  0.61890837  0.84026009    -0.46500
C738        C  0.85991041  0.69236610  0.91458693     0.75000
O739        O  0.92648730  0.68976270  0.83366805    -0.58400
O740        O  0.84326172  0.69696554  0.88441629    -0.48500
O741        O  0.91529394  0.73359158  0.83050886    -0.54800
C742        C  0.85439567  0.68640199  0.75846726     0.85200
O743        O  0.81186303  0.62989777  0.84197559    -0.56700
O744        O  0.88113568  0.68081329  0.90445381    -0.60000
C745        C  0.73898800  0.99180524  0.83882459    -0.00100
C746        C  0.77398339  0.50232743  0.85408323    -0.11900
C747        C  0.80144305  0.53925417  0.85541451     0.02200
C748        C  0.79383788  0.56655648  0.84197052    -0.00200
C749        C  0.75874936  0.55598338  0.82708662    -0.11900
C750        C  0.73163819  0.51910947  0.82478639     0.02100
H751        H  0.78006907  0.98157086  0.86478841     0.15000
H752        H  0.75275823  0.57663957  0.81579509     0.15000
C753        C  0.69751529  0.01014948  0.80529029     0.36700
C754        C  0.83690453  0.54820775  0.87096243     0.36600
N755        N  0.67031263  0.00282395  0.78920824    -0.43700
N756        N  0.86536806  0.55534360  0.88325505    -0.43700
C757        C  0.97886562  0.75153336  0.82946450    -0.00100
C758        C  0.98979719  0.78751781  0.84071463    -0.11900
C759        C  0.52681662  0.81480023  0.84081828     0.02200
C760        C  0.55402615  0.80646622  0.82885795    -0.00200
C761        C  0.54304197  0.77041722  0.81749111    -0.11900
C762        C  0.50594846  0.74304280  0.81772792     0.02100
H763        H  0.96930614  0.79433381  0.85032473     0.15000
H764        H  0.56351788  0.76352369  0.80812859     0.15000
C765        C  0.99655654  0.70683464  0.80484288     0.36700
C766        C  0.53576519  0.85057107  0.85488386     0.36600
N767        N  0.98894305  0.67779692  0.79449967    -0.43700
N768        N  0.54258124  0.87906602  0.86642491    -0.43100
C769        C  0.69640489  0.86518022  0.03620738    -0.00100
C770        C  0.72594846  0.88133999  0.00700878    -0.11900
C771        C  0.72000883  0.88069114  0.96396483     0.02200
C772        C  0.68390397  0.86349143  0.94939748    -0.00200
C773        C  0.65436486  0.84632083  0.97809272    -0.11900
C774        C  0.66022030  0.84664705  0.02118104     0.02100
H775        H  0.75390574  0.89564717  0.01776376     0.15000
H776        H  0.62658194  0.83326093  0.96679265     0.15000
C777        C  0.62847174  0.82811256  0.04878186     0.36700
C778        C  0.75132959  0.90044536  0.93585030     0.36600
N779        N  0.60275909  0.81299689  0.07051628    -0.43700
N780        N  0.77649492  0.91648873  0.91351417    -0.43700
C781        C  0.68601799  0.87664826  0.70438824    -0.00100
C782        C  0.69216066  0.84887634  0.69053870    -0.11900
C783        C  0.69176929  0.84176927  0.64781262     0.02200
C784        C  0.68555544  0.86300244  0.61811220    -0.00200
C785        C  0.68302700  0.89293570  0.63153742    -0.11900
C786        C  0.68303159  0.89987509  0.67423620     0.02100
H787        H  0.69540360  0.83143423  0.71315416     0.15000
H788        H  0.67879666  0.90965118  0.60880397     0.15000
C789        C  0.67869371  0.93032296  0.68587106     0.36700
C790        C  0.69702775  0.81204372  0.63533480     0.36600
N791        N  0.67508082  0.95465940  0.69506582    -0.43700
N792        N  0.70115664  0.78823761  0.62514205    -0.43700
C793        C  0.69223638  0.86555529  0.28503127    -0.00100
C794        C  0.72035307  0.88517455  0.31361413    -0.11900
C795        C  0.71346680  0.88110460  0.35687857     0.02200
C796        C  0.67777606  0.85672692  0.37254870    -0.00200
C797        C  0.64949461  0.83736942  0.34418693    -0.11900
C798        C  0.65629836  0.84171626  0.30076722     0.02100
H799        H  0.74811587  0.90355052  0.30223000     0.15000
H800        H  0.62204126  0.81836535  0.35603010     0.15000
C801        C  0.62611038  0.82046074  0.27347024     0.36700
C802        C  0.74403964  0.90067768  0.38432086     0.36600
N803        N  0.60185242  0.80339477  0.25165909    -0.43700
N804        N  0.76864303  0.91637372  0.40615230    -0.43700
C805        C  0.75844633  0.99090027  0.15951170    -0.00100
C806        C  0.73150925  0.50102762  0.16238437    -0.11900
C807        C  0.74096433  0.53781983  0.16471691     0.02200
C808        C  0.77829174  0.56576266  0.16388617    -0.00200
C809        C  0.80518296  0.55566023  0.16012599    -0.11900
C810        C  0.79574542  0.51888477  0.15809584     0.02100
H811        H  0.70271845  0.98004750  0.16337101     0.15000
H812        H  0.83397215  0.57661752  0.15920316     0.15000
C813        C  0.82514585  0.51100285  0.15501400     0.36700
C814        C  0.71162226  0.54575213  0.16841674     0.36600
N815        N  0.84881106  0.00482223  0.15274358    -0.43700
N816        N  0.68805662  0.55203134  0.17149166    -0.43700
C817        C  0.77900481  0.75122374  0.17044132    -0.00100
C818        C  0.74250490  0.74062585  0.18051651    -0.11900
C819        C  0.73026368  0.76580700  0.17834469     0.02200
C820        C  0.75494356  0.80272585  0.16615592    -0.00200
C821        C  0.79132379  0.81318350  0.15580321    -0.11900
C822        C  0.80338928  0.78793699  0.15729191     0.02100
H823        H  0.72344995  0.71260384  0.19032200     0.15000
H824        H  0.81036883  0.84111887  0.14567443     0.15000
C825        C  0.84054762  0.80039907  0.14318782     0.36700
C826        C  0.69237935  0.75286161  0.18952623     0.36600
N827        N  0.87021954  0.81035900  0.13152923    -0.43700
N828        N  0.66198301  0.74235583  0.19842697    -0.43700
C829        C  0.85406052  0.69805748  0.95891333    -0.00100
C830        C  0.88399053  0.71277871  0.98597121    -0.11900
C831        C  0.87876589  0.71332889  0.02945107     0.02200
C832        C  0.84281032  0.69746578  0.04657678    -0.00200
C833        C  0.81327302  0.68495069  0.01897837    -0.11900
C834        C  0.81859514  0.68532203  0.97564195     0.02100
H835        H  0.91145381  0.72336761  0.97313977     0.15000
H836        H  0.78552951  0.67345246  0.03125630     0.15000
C837        C  0.78676354  0.66970465  0.94948733     0.36700
C838        C  0.91069033  0.73035316  0.05537293     0.36600
N839        N  0.76123016  0.65710409  0.92857844    -0.43700
N840        N  0.93637796  0.74447450  0.07597314    -0.43700
C841        C  0.84813206  0.69188940  0.71398029    -0.00100
C842        C  0.84589365  0.72277049  0.70249124    -0.11900
C843        C  0.84489372  0.73163210  0.66022991     0.02200
C844        C  0.84584030  0.70911304  0.62845054    -0.00200
C845        C  0.84544748  0.67690763  0.64009555    -0.11900
C846        C  0.84672340  0.66818572  0.68225527     0.02100
H847        H  0.84633762  0.74086716  0.72649582     0.15000
H848        H  0.84571237  0.65915836  0.61608163     0.15000
C849        C  0.84674589  0.63476942  0.69173206     0.36700
C850        C  0.84301620  0.76403835  0.65056195     0.36600
N851        N  0.84673505  0.60794245  0.69907718    -0.43700
N852        N  0.84144148  0.78998618  0.64294472    -0.43700
C853        C  0.97486820  0.77589982  0.51121732    -0.00100
C854        C  0.50109125  0.81317837  0.50575392    -0.11900
C855        C  0.53871415  0.82533905  0.50427219     0.02200
C856        C  0.55088407  0.79985687  0.50861379    -0.00200
C857        C  0.52468908  0.76278317  0.51536463    -0.11900
C858        C  0.98716955  0.75059610  0.51657601     0.02100
H859        H  0.99221025  0.83293436  0.50166842     0.15000
H860        H  0.53347723  0.74292593  0.51913833     0.15000
C861        C  0.96231398  0.71175904  0.52263195     0.36700
C862        C  0.56376441  0.86396519  0.49696318     0.36600
N863        N  0.94265797  0.68058002  0.52731682    -0.43700
N864        N  0.58357569  0.89495937  0.49097668    -0.43700
C865        C  0.73166748  0.79071536  0.49536079    -0.00100
C866        C  0.76718095  0.81516417  0.47954282    -0.11900
C867        C  0.79475252  0.80619861  0.48006143     0.02200
C868        C  0.78708714  0.77194227  0.49653868    -0.00200
C869        C  0.75140726  0.74713443  0.51173487    -0.11900
C870        C  0.72385709  0.75631792  0.51171809     0.02100
H871        H  0.77358413  0.84159959  0.46665409     0.15000
H872        H  0.74524839  0.72083265  0.52480968     0.15000
C873        C  0.68867349  0.73074776  0.53073696     0.36700
C874        C  0.83035279  0.83244567  0.46254718     0.36600
N875        N  0.66063524  0.71029201  0.54634587    -0.43700
N876        N  0.85888012  0.85346008  0.44848036    -0.43700
C877        C  0.84773492  0.69371429  0.29460233    -0.00100
C878        C  0.82686743  0.66633969  0.32494419    -0.11900
C879        C  0.83178490  0.67336624  0.36789611     0.02200
C880        C  0.85719474  0.70890282  0.38130841    -0.00200
C881        C  0.87944017  0.73571655  0.35090387    -0.11900
C882        C  0.87528584  0.72832633  0.30797702     0.02100
H883        H  0.80603592  0.63943903  0.31501645     0.15000
H884        H  0.89968608  0.76294153  0.36059002     0.15000
C885        C  0.89819227  0.75744294  0.27846655     0.36700
C886        C  0.80966603  0.64379445  0.39723730     0.36600
N887        N  0.91668342  0.78079325  0.25489575    -0.43700
N888        N  0.79222212  0.62007729  0.42087169    -0.43700
loop_ 
_geom_bond_atom_site_label_1 
_geom_bond_atom_site_label_2 
_geom_bond_distance 
_geom_bond_site_symmetry_2 
_ccdc_geom_bond_type 
In1           O3   2.217       .  S
In1           O4   2.228       .  S
In1          O12   2.213       .  S
In1           O6   2.239       .  S
In1           O8   2.242       .  S
In1           O9   2.246       .  S
In1          O10   2.219       .  S
In1          O13   2.201       .  S
C2            O8   1.270       .  A
C2           O10   1.264       .  A
C2          C214   1.489       .  S
O3           C11   1.265       .  A
O4           C11   1.270       .  A
C5           O12   1.264       .  A
C5            O6   1.271       .  A
C5          C178   1.482       .  S
C7            O9   1.272       .  A
C7           O13   1.263       .  A
C7          C187   1.487       .  S
C11         C202   1.481       .  S
In14         O16   2.216       .  S
In14         O17   2.255       .  S
In14         O25   2.226       .  S
In14         O19   2.243       .  S
In14         O21   2.252       .  S
In14         O22   2.260       .  S
In14         O23   2.208       .  S
In14         O26   2.197       .  S
C15          O21   1.271       .  A
C15          O23   1.263       .  A
C15         C151   1.487       .  S
O16          C24   1.263       .  A
O17          C24   1.270       .  A
C18          O25   1.266       .  A
C18          O19   1.269       .  A
C18         C142   1.492       .  S
C20          O22   1.272       .  A
C20          O26   1.263       .  A
C20         C166   1.488       .  S
C24         C211   1.484       .  S
In27         O29   2.223       .  S
In27         O30   2.228       .  S
In27         O38   2.212       .  S
In27         O32   2.238       .  S
In27         O34   2.242       .  S
In27         O35   2.246       .  S
In27         O36   2.192       .  S
In27         O39   2.199       .  S
C28          O34   1.271       .  A
C28          O36   1.262       .  A
C28         C118   1.473       .  S
O29          C37   1.265       .  A
O30          C37   1.270       .  A
C31          O38   1.264       .  A
C31          O32   1.270       .  A
C31         C130   1.477       .  S
C33          O35   1.271       .  A
C33          O39   1.264       .  A
C33         C199   1.482       .  S
C37         C190   1.487       .  S
In40         O42   2.197       .  S
In40         O43   2.245       .  S
In40         O51   2.226       .  S
In40         O45   2.240       .  S
In40         O47   2.236       .  S
In40         O48   2.242       .  S
In40         O49   2.219       .  S
In40         O52   2.196       .  S
C41          O47   1.271       .  A
C41          O49   1.264       .  A
C41         C154   1.487       .  S
O42          C50   1.264       .  A
O43          C50   1.272       .  A
C44          O51   1.266       .  A
C44          O45   1.270       .  A
C44         C139   1.492       .  S
C46          O48   1.272       .  A
C46          O52   1.264       .  A
C46         C103   1.484       .  S
C50         C127   1.485       .  S
In53         O55   2.224       .  S
In53         O56   2.237       .  S
In53         O64   2.195       .  S
In53         O58   2.236       .  S
In53         O60   2.247       .  S
In53         O61   2.233       .  S
In53         O62   2.196       .  S
In53         O65   2.213       .  S
C54          O60   1.271       .  A
C54          O62   1.261       .  A
C54         C115   1.482       .  S
O55          C63   1.265       .  A
O56          C63   1.269       .  A
C57          O64   1.262       .  A
C57          O58   1.270       .  A
C57         C106   1.466       .  S
C59          O61   1.270       .  A
C59          O65   1.263       .  A
C59          C79   1.480       .  S
C63          C94   1.486       .  S
In66         O68   2.212       .  S
In66         O69   2.252       .  S
In66         O77   2.211       .  S
In66         O71   2.248       .  S
In66         O73   2.236       .  S
In66         O74   2.245       .  S
In66         O75   2.207       .  S
In66         O78   2.221       .  S
C67          O73   1.269       .  A
C67          O75   1.264       .  A
C67          C91   1.481       .  S
O68          C76   1.262       .  A
O69          C76   1.270       .  A
C70          O77   1.262       .  A
C70          O71   1.268       .  A
C70          C82   1.481       .  S
C72          O74   1.269       .  A
C72          O78   1.262       .  A
C72         C163   1.477       .  S
C76         C175   1.484       .  S
C79         C302   1.407       .  A
C79         C306   1.410       .  A
C80          C81   1.401       .  A
C80         C301   1.407   1_545  A
C80         H307   1.086   1_545  S
C81          C82   1.411       .  A
C81          C88   1.444       .  S
C82          C83   1.406       .  A
C83          C84   1.398       .  A
C83          H86   1.085       .  S
C84         C301   1.410   1_545  A
C84         C309   1.444       .  S
H85         C302   1.086       .  S
C87         C306   1.444       .  S
C87          N89   1.157       .  T
C88          N90   1.157       .  T
C91          C92   1.405       .  A
C91         C540   1.411       .  A
C92         C537   1.399       .  A
C92          H97   1.085       .  S
C93          C94   1.414       .  A
C93         C536   1.399   1_455  A
C93         C100   1.444       .  S
C94          C95   1.408       .  A
C95          C96   1.402       .  A
C95          H98   1.085       .  S
C96         C535   1.411   1_455  A
C96         C543   1.444   1_455  S
C99         C540   1.444       .  S
C99         N101   1.157       .  T
C100        N102   1.157       .  T
C103        C104   1.410       .  A
C103        C108   1.414       .  A
C104        C105   1.398   1_554  A
C104        H109   1.083       .  S
C105        C106   1.406       .  A
C105        C112   1.446       .  S
C106        C107   1.401       .  A
C107        C108   1.399   1_556  A
C107        H110   1.083       .  S
C108        C111   1.443       .  S
C111        N113   1.157       .  T
C112        N114   1.157       .  T
C115        C116   1.403       .  A
C115        C120   1.419       .  A
C116        C117   1.399       .  A
C116        H121   1.085       .  S
C117        C118   1.414       .  A
C117        C124   1.446       .  S
C118        C119   1.398       .  A
C119        C120   1.398       .  A
C119        H122   1.085       .  S
C120        C123   1.445       .  S
C123        N125   1.157       .  T
C124        N126   1.157       .  T
C127        C128   1.408       .  A
C127        C132   1.413       .  A
C128        C129   1.398       .  A
C128        H133   1.083       .  S
C129        C130   1.409       .  A
C129        C136   1.445       .  S
C130        C131   1.405       .  A
C131        C132   1.403       .  A
C131        H134   1.084       .  S
C132        C135   1.443       .  S
C135        N137   1.157       .  T
C136        N138   1.157       .  T
C139        C362   1.408       .  A
C139        C366   1.414       .  A
C140        C141   1.403       .  A
C140        C361   1.408   1_545  A
C140        H367   1.085   1_545  S
C141        C142   1.415       .  A
C141        C148   1.444       .  S
C142        C143   1.407       .  A
C143        C144   1.402       .  A
C143        H146   1.084       .  S
C144        C361   1.414   1_545  A
C144        C147   1.444       .  S
H145        C362   1.085       .  S
C147        N371   1.157       .  T
C148        N150   1.157       .  T
N149        C369   1.157       .  T
C151        C152   1.404       .  A
C151        C156   1.417       .  A
C152        C153   1.403       .  A
C152        H157   1.083       .  S
C153        C154   1.418       .  A
C153        C160   1.444       .  S
C154        C155   1.402       .  A
C155        C156   1.399       .  A
C155        H158   1.083       .  S
C156        C159   1.445       .  S
C159        N161   1.157       .  T
C160        N162   1.157       .  T
C163        C164   1.406       .  A
C163        C168   1.407       .  A
C164        C165   1.405   1_556  A
C164        H169   1.084       .  S
C165        C166   1.414       .  A
C165        C172   1.444       .  S
C166        C167   1.409       .  A
C167        C168   1.397   1_554  A
C167        H170   1.083       .  S
C168        C171   1.444       .  S
C171        N173   1.157       .  T
C172        N174   1.157       .  T
C175        C176   1.403       .  A
C175        C180   1.416       .  A
C176        C177   1.402       .  A
C176        H181   1.085       .  S
C177        C178   1.416       .  A
C177        C184   1.444       .  S
C178        C179   1.401       .  A
C179        C180   1.399       .  A
C179        H182   1.085       .  S
C180        C183   1.444       .  S
C183        N185   1.157       .  T
C184        N186   1.157       .  T
C187        C192   1.418       .  A
C187        C632   1.404       .  A
C188        C189   1.402       .  A
C188        C631   1.404   1_455  A
C188        H637   1.084   1_455  S
C189        C190   1.418       .  A
C189        C196   1.444       .  S
C190        C191   1.402       .  A
C191        C636   1.398   1_455  A
C191        H194   1.084       .  S
C192        C635   1.398       .  A
C192        C195   1.445       .  S
H193        C632   1.084       .  S
C195        N197   1.157       .  T
C196        N198   1.157       .  T
C199        C200   1.406       .  A
C199        C204   1.412       .  A
C200        C201   1.397       .  A
C200        H205   1.084       .  S
C201        C202   1.410       .  A
C201        C208   1.444       .  S
C202        C203   1.407       .  A
C203        C204   1.402       .  A
C203        H206   1.084       .  S
C204        C207   1.444       .  S
C207        N209   1.157       .  T
C208        N210   1.157       .  T
C211        C212   1.406       .  A
C211        C216   1.411       .  A
C212        C213   1.402       .  A
C212        H217   1.085       .  S
C213        C214   1.413       .  A
C213        C220   1.444       .  S
C214        C215   1.409       .  A
C215        C216   1.403       .  A
C215        H218   1.084       .  S
C216        C219   1.444       .  S
C219        N221   1.157       .  T
C220        N222   1.157       .  T
In223       O225   2.217       .  S
In223       O226   2.228       .  S
In223       O234   2.213       .  S
In223       O228   2.239       .  S
In223       O230   2.242       .  S
In223       O231   2.246       .  S
In223       O232   2.219       .  S
In223       O235   2.201       .  S
C224        O230   1.270       .  A
C224        O232   1.264       .  A
C224        C436   1.489       .  S
O225        C233   1.265       .  A
O226        C233   1.270       .  A
C227        O234   1.264       .  A
C227        O228   1.271       .  A
C227        C400   1.482       .  S
C229        O231   1.272       .  A
C229        O235   1.263       .  A
C229        C409   1.487       .  S
C233        C424   1.481       .  S
In236       O238   2.216       .  S
In236       O239   2.255       .  S
In236       O247   2.226       .  S
In236       O241   2.243       .  S
In236       O243   2.252       .  S
In236       O244   2.260       .  S
In236       O245   2.208       .  S
In236       O248   2.197       .  S
C237        O243   1.271       .  A
C237        O245   1.263       .  A
C237        C373   1.487       .  S
O238        C246   1.263       .  A
O239        C246   1.270       .  A
C240        O247   1.266       .  A
C240        O241   1.269       .  A
C240        C364   1.492       .  S
C242        O244   1.272       .  A
C242        O248   1.263       .  A
C242        C388   1.488       .  S
C246        C433   1.484       .  S
In249       O251   2.223       .  S
In249       O252   2.228       .  S
In249       O260   2.212       .  S
In249       O254   2.238       .  S
In249       O256   2.242       .  S
In249       O257   2.246       .  S
In249       O258   2.192       .  S
In249       O261   2.199       .  S
C250        O256   1.271       .  A
C250        O258   1.262       .  A
C250        C340   1.473       .  S
O251        C259   1.265       .  A
O252        C259   1.270       .  A
C253        O260   1.264       .  A
C253        O254   1.270       .  A
C253        C352   1.477       .  S
C255        O257   1.271       .  A
C255        O261   1.264       .  A
C255        C421   1.482       .  S
C259        C412   1.487       .  S
In262       O264   2.197       .  S
In262       O265   2.245       .  S
In262       O273   2.226       .  S
In262       O267   2.240       .  S
In262       O269   2.236       .  S
In262       O270   2.242       .  S
In262       O271   2.219       .  S
In262       O274   2.196       .  S
C263        O269   1.271       .  A
C263        O271   1.264       .  A
C263        C376   1.487       .  S
O264        C272   1.264       .  A
O265        C272   1.272       .  A
C266        O273   1.266       .  A
C266        O267   1.270       .  A
C266        C361   1.492       .  S
C268        O270   1.272       .  A
C268        O274   1.264       .  A
C268        C325   1.484       .  S
C272        C349   1.485       .  S
In275       O277   2.224       .  S
In275       O278   2.237       .  S
In275       O286   2.195       .  S
In275       O280   2.236       .  S
In275       O282   2.247       .  S
In275       O283   2.233       .  S
In275       O284   2.196       .  S
In275       O287   2.213       .  S
C276        O282   1.271       .  A
C276        O284   1.261       .  A
C276        C337   1.482       .  S
O277        C285   1.265       .  A
O278        C285   1.269       .  A
C279        O286   1.262       .  A
C279        O280   1.270       .  A
C279        C328   1.466       .  S
C281        O283   1.270       .  A
C281        O287   1.263       .  A
C281        C301   1.480       .  S
C285        C316   1.486       .  S
In288       O290   2.212       .  S
In288       O291   2.252       .  S
In288       O299   2.211       .  S
In288       O293   2.248       .  S
In288       O295   2.236       .  S
In288       O296   2.246       .  S
In288       O297   2.207       .  S
In288       O300   2.221       .  S
C289        O295   1.269       .  A
C289        O297   1.264       .  A
C289        C313   1.481       .  S
O290        C298   1.262       .  A
O291        C298   1.270       .  A
C292        O299   1.262       .  A
C292        O293   1.268       .  A
C292        C304   1.481       .  S
C294        O296   1.269       .  A
C294        O300   1.262       .  A
C294        C385   1.477       .  S
C298        C397   1.484       .  S
C302        C303   1.401       .  A
C303        C304   1.411       .  A
C303        C310   1.444       .  S
C304        C305   1.406       .  A
C305        C306   1.398       .  A
C305        H308   1.085       .  S
C309        N311   1.157       .  T
C310        N312   1.157       .  T
C313        C314   1.405       .  A
C313        C762   1.411       .  A
C314        C759   1.399       .  A
C314        H319   1.085       .  S
C315        C758   1.399   1_455  A
C315        C316   1.414       .  A
C315        C322   1.444       .  S
C316        C317   1.408       .  A
C317        C318   1.402       .  A
C317        H320   1.085       .  S
C318        C757   1.411   1_455  A
C318        C765   1.444   1_455  S
C321        C762   1.444       .  S
C321        N323   1.157       .  T
C322        N324   1.157       .  T
C325        C326   1.410       .  A
C325        C330   1.414       .  A
C326        C327   1.398   1_554  A
C326        H331   1.083       .  S
C327        C328   1.406       .  A
C327        C334   1.446       .  S
C328        C329   1.401       .  A
C329        C330   1.399   1_556  A
C329        H332   1.083       .  S
C330        C333   1.443       .  S
C333        N335   1.157       .  T
C334        N336   1.157       .  T
C337        C338   1.403       .  A
C337        C342   1.419       .  A
C338        C339   1.399       .  A
C338        H343   1.085       .  S
C339        C340   1.414       .  A
C339        C346   1.446       .  S
C340        C341   1.398       .  A
C341        C342   1.398       .  A
C341        H344   1.085       .  S
C342        C345   1.445       .  S
C345        N347   1.157       .  T
C346        N348   1.157       .  T
C349        C350   1.408       .  A
C349        C354   1.413       .  A
C350        C351   1.398       .  A
C350        H355   1.083       .  S
C351        C352   1.409       .  A
C351        C358   1.445       .  S
C352        C353   1.405       .  A
C353        C354   1.403       .  A
C353        H356   1.084       .  S
C354        C357   1.443       .  S
C357        N359   1.157       .  T
C358        N360   1.157       .  T
C362        C363   1.403       .  A
C363        C364   1.415       .  A
C363        C370   1.444       .  S
C364        C365   1.407       .  A
C365        C366   1.402       .  A
C365        H368   1.084       .  S
C366        C369   1.444       .  S
C370        N372   1.157       .  T
C373        C374   1.404       .  A
C373        C378   1.417       .  A
C374        C375   1.403       .  A
C374        H379   1.083       .  S
C375        C376   1.418       .  A
C375        C382   1.444       .  S
C376        C377   1.402       .  A
C377        C378   1.399       .  A
C377        H380   1.083       .  S
C378        C381   1.445       .  S
C381        N383   1.157       .  T
C382        N384   1.157       .  T
C385        C386   1.406       .  A
C385        C390   1.407       .  A
C386        C387   1.405   1_556  A
C386        H391   1.084       .  S
C387        C388   1.414       .  A
C387        C394   1.444       .  S
C388        C389   1.409       .  A
C389        C390   1.397   1_554  A
C389        H392   1.083       .  S
C390        C393   1.444       .  S
C393        N395   1.157       .  T
C394        N396   1.157       .  T
C397        C398   1.403       .  A
C397        C402   1.416       .  A
C398        C399   1.402       .  A
C398        H403   1.085       .  S
C399        C400   1.416       .  A
C399        C406   1.444       .  S
C400        C401   1.401       .  A
C401        C402   1.399       .  A
C401        H404   1.085       .  S
C402        C405   1.444       .  S
C405        N407   1.157       .  T
C406        N408   1.157       .  T
C409        C854   1.404       .  A
C409        C414   1.418       .  A
C410        C853   1.404   1_455  A
C410        C411   1.402       .  A
C410        H859   1.084   1_455  S
C411        C412   1.418       .  A
C411        C418   1.444       .  S
C412        C413   1.402       .  A
C413        C858   1.398   1_455  A
C413        H416   1.084       .  S
C414        C857   1.398       .  A
C414        C417   1.445       .  S
H415        C854   1.084       .  S
C417        N419   1.157       .  T
C418        N420   1.157       .  T
C421        C422   1.406       .  A
C421        C426   1.412       .  A
C422        C423   1.397       .  A
C422        H427   1.084       .  S
C423        C424   1.410       .  A
C423        C430   1.444       .  S
C424        C425   1.407       .  A
C425        C426   1.402       .  A
C425        H428   1.084       .  S
C426        C429   1.444       .  S
C429        N431   1.157       .  T
C430        N432   1.157       .  T
C433        C434   1.406       .  A
C433        C438   1.411       .  A
C434        C435   1.402       .  A
C434        H439   1.085       .  S
C435        C436   1.413       .  A
C435        C442   1.444       .  S
C436        C437   1.409       .  A
C437        C438   1.403       .  A
C437        H440   1.084       .  S
C438        C441   1.444       .  S
C441        N443   1.157       .  T
C442        N444   1.157       .  T
In445       O447   2.217       .  S
In445       O448   2.228       .  S
In445       O456   2.213       .  S
In445       O450   2.239       .  S
In445       O452   2.242       .  S
In445       O453   2.246       .  S
In445       O454   2.219       .  S
In445       O457   2.201       .  S
C446        O452   1.270       .  A
C446        O454   1.264       .  A
C446        C658   1.489       .  S
O447        C455   1.265       .  A
O448        C455   1.270       .  A
C449        O456   1.264       .  A
C449        O450   1.271       .  A
C449        C622   1.482       .  S
C451        O453   1.272       .  A
C451        O457   1.263       .  A
C451        C631   1.487       .  S
C455        C646   1.481       .  S
In458       O460   2.216       .  S
In458       O461   2.255       .  S
In458       O469   2.226       .  S
In458       O463   2.243       .  S
In458       O465   2.252       .  S
In458       O466   2.260       .  S
In458       O467   2.208       .  S
In458       O470   2.197       .  S
C459        O465   1.271       .  A
C459        O467   1.263       .  A
C459        C595   1.487       .  S
O460        C468   1.263       .  A
O461        C468   1.270       .  A
C462        O469   1.266       .  A
C462        O463   1.269       .  A
C462        C586   1.492       .  S
C464        O466   1.272       .  A
C464        O470   1.263       .  A
C464        C610   1.488       .  S
C468        C655   1.484       .  S
In471       O473   2.223       .  S
In471       O474   2.228       .  S
In471       O482   2.212       .  S
In471       O476   2.238       .  S
In471       O478   2.242       .  S
In471       O479   2.246       .  S
In471       O480   2.192       .  S
In471       O483   2.199       .  S
C472        O478   1.271       .  A
C472        O480   1.262       .  A
C472        C562   1.473       .  S
O473        C481   1.265       .  A
O474        C481   1.270       .  A
C475        O482   1.264       .  A
C475        O476   1.270       .  A
C475        C574   1.477       .  S
C477        O479   1.271       .  A
C477        O483   1.264       .  A
C477        C643   1.482       .  S
C481        C634   1.487       .  S
In484       O486   2.197       .  S
In484       O487   2.245       .  S
In484       O495   2.226       .  S
In484       O489   2.240       .  S
In484       O491   2.236       .  S
In484       O492   2.242       .  S
In484       O493   2.219       .  S
In484       O496   2.196       .  S
C485        O491   1.271       .  A
C485        O493   1.264       .  A
C485        C598   1.487       .  S
O486        C494   1.264       .  A
O487        C494   1.272       .  A
C488        O495   1.266       .  A
C488        O489   1.270       .  A
C488        C583   1.492       .  S
C490        O492   1.272       .  A
C490        O496   1.264       .  A
C490        C547   1.484       .  S
C494        C571   1.485       .  S
In497       O499   2.224       .  S
In497       O500   2.237       .  S
In497       O508   2.195       .  S
In497       O502   2.236       .  S
In497       O504   2.247       .  S
In497       O505   2.233       .  S
In497       O506   2.196       .  S
In497       O509   2.213       .  S
C498        O504   1.271       .  A
C498        O506   1.261       .  A
C498        C559   1.482       .  S
O499        C507   1.265       .  A
O500        C507   1.269       .  A
C501        O508   1.262       .  A
C501        O502   1.270       .  A
C501        C550   1.466       .  S
C503        O505   1.270       .  A
C503        O509   1.263       .  A
C503        C523   1.480       .  S
C507        C538   1.486       .  S
In510       O512   2.212       .  S
In510       O513   2.252       .  S
In510       O521   2.211       .  S
In510       O515   2.248       .  S
In510       O517   2.236       .  S
In510       O518   2.245       .  S
In510       O519   2.207       .  S
In510       O522   2.221       .  S
C511        O517   1.269       .  A
C511        O519   1.264       .  A
C511        C535   1.481       .  S
O512        C520   1.262       .  A
O513        C520   1.270       .  A
C514        O521   1.262       .  A
C514        O515   1.268       .  A
C514        C526   1.481       .  S
C516        O518   1.269       .  A
C516        O522   1.262       .  A
C516        C607   1.477       .  S
C520        C619   1.484       .  S
C523        C746   1.407       .  A
C523        C750   1.410       .  A
C524        C745   1.407   1_545  A
C524        C525   1.401       .  A
C524        H751   1.086   1_545  S
C525        C526   1.411       .  A
C525        C532   1.444       .  S
C526        C527   1.406       .  A
C527        C528   1.398       .  A
C527        H530   1.085       .  S
C528        C745   1.410   1_545  A
C528        C753   1.444       .  S
H529        C746   1.086       .  S
C531        C750   1.444       .  S
C531        N533   1.157       .  T
C532        N534   1.157       .  T
C535        C536   1.405       .  A
C536        H541   1.085       .  S
C537        C538   1.414       .  A
C537        C544   1.444       .  S
C538        C539   1.408       .  A
C539        C540   1.402       .  A
C539        H542   1.085       .  S
C543        N545   1.157       .  T
C544        N546   1.157       .  T
C547        C548   1.410       .  A
C547        C552   1.414       .  A
C548        C549   1.398   1_554  A
C548        H553   1.083       .  S
C549        C550   1.406       .  A
C549        C556   1.446       .  S
C550        C551   1.401       .  A
C551        C552   1.399   1_556  A
C551        H554   1.083       .  S
C552        C555   1.443       .  S
C555        N557   1.157       .  T
C556        N558   1.157       .  T
C559        C560   1.403       .  A
C559        C564   1.419       .  A
C560        C561   1.399       .  A
C560        H565   1.085       .  S
C561        C562   1.414       .  A
C561        C568   1.446       .  S
C562        C563   1.398       .  A
C563        C564   1.398       .  A
C563        H566   1.085       .  S
C564        C567   1.445       .  S
C567        N569   1.157       .  T
C568        N570   1.157       .  T
C571        C572   1.408       .  A
C571        C576   1.413       .  A
C572        C573   1.398       .  A
C572        H577   1.083       .  S
C573        C574   1.409       .  A
C573        C580   1.445       .  S
C574        C575   1.405       .  A
C575        C576   1.403       .  A
C575        H578   1.084       .  S
C576        C579   1.443       .  S
C579        N581   1.157       .  T
C580        N582   1.157       .  T
C583        C806   1.408       .  A
C583        C810   1.414       .  A
C584        C805   1.408   1_545  A
C584        C585   1.403       .  A
C584        H811   1.085   1_545  S
C585        C586   1.415       .  A
C585        C592   1.444       .  S
C586        C587   1.407       .  A
C587        C588   1.402       .  A
C587        H590   1.084       .  S
C588        C805   1.414   1_545  A
C588        C591   1.444       .  S
H589        C806   1.085       .  S
C591        N815   1.157       .  T
C592        N594   1.157       .  T
N593        C813   1.157       .  T
C595        C596   1.404       .  A
C595        C600   1.417       .  A
C596        C597   1.403       .  A
C596        H601   1.083       .  S
C597        C598   1.418       .  A
C597        C604   1.444       .  S
C598        C599   1.402       .  A
C599        C600   1.399       .  A
C599        H602   1.083       .  S
C600        C603   1.445       .  S
C603        N605   1.157       .  T
C604        N606   1.157       .  T
C607        C608   1.406       .  A
C607        C612   1.407       .  A
C608        C609   1.405   1_556  A
C608        H613   1.084       .  S
C609        C610   1.414       .  A
C609        C616   1.444       .  S
C610        C611   1.409       .  A
C611        C612   1.397   1_554  A
C611        H614   1.083       .  S
C612        C615   1.444       .  S
C615        N617   1.157       .  T
C616        N618   1.157       .  T
C619        C620   1.403       .  A
C619        C624   1.416       .  A
C620        C621   1.402       .  A
C620        H625   1.085       .  S
C621        C622   1.416       .  A
C621        C628   1.444       .  S
C622        C623   1.401       .  A
C623        C624   1.399       .  A
C623        H626   1.085       .  S
C624        C627   1.444       .  S
C627        N629   1.157       .  T
C628        N630   1.157       .  T
C631        C636   1.418       .  A
C632        C633   1.402       .  A
C633        C634   1.418       .  A
C633        C640   1.444       .  S
C634        C635   1.402       .  A
C635        H638   1.084       .  S
C636        C639   1.445       .  S
C639        N641   1.157       .  T
C640        N642   1.157       .  T
C643        C644   1.406       .  A
C643        C648   1.412       .  A
C644        C645   1.397       .  A
C644        H649   1.084       .  S
C645        C646   1.410       .  A
C645        C652   1.444       .  S
C646        C647   1.407       .  A
C647        C648   1.402       .  A
C647        H650   1.084       .  S
C648        C651   1.444       .  S
C651        N653   1.157       .  T
C652        N654   1.157       .  T
C655        C656   1.406       .  A
C655        C660   1.411       .  A
C656        C657   1.402       .  A
C656        H661   1.085       .  S
C657        C658   1.413       .  A
C657        C664   1.444       .  S
C658        C659   1.409       .  A
C659        C660   1.403       .  A
C659        H662   1.084       .  S
C660        C663   1.444       .  S
C663        N665   1.157       .  T
C664        N666   1.157       .  T
In667       O669   2.217       .  S
In667       O670   2.228       .  S
In667       O678   2.213       .  S
In667       O672   2.239       .  S
In667       O674   2.242       .  S
In667       O675   2.246       .  S
In667       O676   2.219       .  S
In667       O679   2.201       .  S
C668        O674   1.270       .  A
C668        O676   1.264       .  A
C668        C880   1.489       .  S
O669        C677   1.265       .  A
O670        C677   1.270       .  A
C671        O678   1.264       .  A
C671        O672   1.271       .  A
C671        C844   1.482       .  S
C673        O675   1.272       .  A
C673        O679   1.263       .  A
C673        C853   1.487       .  S
C677        C868   1.481       .  S
In680       O682   2.216       .  S
In680       O683   2.255       .  S
In680       O691   2.226       .  S
In680       O685   2.243       .  S
In680       O687   2.252       .  S
In680       O688   2.260       .  S
In680       O689   2.208       .  S
In680       O692   2.197       .  S
C681        O687   1.271       .  A
C681        O689   1.263       .  A
C681        C817   1.487       .  S
O682        C690   1.263       .  A
O683        C690   1.270       .  A
C684        O691   1.266       .  A
C684        O685   1.269       .  A
C684        C808   1.492       .  S
C686        O688   1.272       .  A
C686        O692   1.263       .  A
C686        C832   1.488       .  S
C690        C877   1.484       .  S
In693       O695   2.223       .  S
In693       O696   2.228       .  S
In693       O704   2.212       .  S
In693       O698   2.238       .  S
In693       O700   2.242       .  S
In693       O701   2.246       .  S
In693       O702   2.192       .  S
In693       O705   2.199       .  S
C694        O700   1.271       .  A
C694        O702   1.262       .  A
C694        C784   1.473       .  S
O695        C703   1.265       .  A
O696        C703   1.270       .  A
C697        O704   1.264       .  A
C697        O698   1.270       .  A
C697        C796   1.477       .  S
C699        O701   1.271       .  A
C699        O705   1.264       .  A
C699        C865   1.482       .  S
C703        C856   1.487       .  S
In706       O708   2.197       .  S
In706       O709   2.245       .  S
In706       O717   2.226       .  S
In706       O711   2.240       .  S
In706       O713   2.236       .  S
In706       O714   2.242       .  S
In706       O715   2.219       .  S
In706       O718   2.196       .  S
C707        O713   1.271       .  A
C707        O715   1.264       .  A
C707        C820   1.487       .  S
O708        C716   1.264       .  A
O709        C716   1.272       .  A
C710        O717   1.266       .  A
C710        O711   1.270       .  A
C710        C805   1.492       .  S
C712        O714   1.272       .  A
C712        O718   1.264       .  A
C712        C769   1.484       .  S
C716        C793   1.485       .  S
In719       O721   2.224       .  S
In719       O722   2.237       .  S
In719       O730   2.195       .  S
In719       O724   2.236       .  S
In719       O726   2.247       .  S
In719       O727   2.233       .  S
In719       O728   2.196       .  S
In719       O731   2.213       .  S
C720        O726   1.271       .  A
C720        O728   1.261       .  A
C720        C781   1.482       .  S
O721        C729   1.265       .  A
O722        C729   1.269       .  A
C723        O730   1.262       .  A
C723        O724   1.270       .  A
C723        C772   1.466       .  S
C725        O727   1.270       .  A
C725        O731   1.263       .  A
C725        C745   1.480       .  S
C729        C760   1.486       .  S
In732       O734   2.212       .  S
In732       O735   2.252       .  S
In732       O743   2.211       .  S
In732       O737   2.248       .  S
In732       O739   2.236       .  S
In732       O740   2.246       .  S
In732       O741   2.207       .  S
In732       O744   2.221       .  S
C733        O739   1.269       .  A
C733        O741   1.264       .  A
C733        C757   1.481       .  S
O734        C742   1.262       .  A
O735        C742   1.270       .  A
C736        O743   1.262       .  A
C736        O737   1.268       .  A
C736        C748   1.481       .  S
C738        O740   1.269       .  A
C738        O744   1.262       .  A
C738        C829   1.477       .  S
C742        C841   1.484       .  S
C746        C747   1.401       .  A
C747        C748   1.411       .  A
C747        C754   1.444       .  S
C748        C749   1.406       .  A
C749        C750   1.398       .  A
C749        H752   1.085       .  S
C753        N755   1.157       .  T
C754        N756   1.157       .  T
C757        C758   1.405       .  A
C758        H763   1.085       .  S
C759        C760   1.414       .  A
C759        C766   1.444       .  S
C760        C761   1.408       .  A
C761        C762   1.402       .  A
C761        H764   1.085       .  S
C765        N767   1.157       .  T
C766        N768   1.157       .  T
C769        C770   1.410       .  A
C769        C774   1.414       .  A
C770        C771   1.398   1_554  A
C770        H775   1.083       .  S
C771        C772   1.406       .  A
C771        C778   1.446       .  S
C772        C773   1.401       .  A
C773        C774   1.399   1_556  A
C773        H776   1.083       .  S
C774        C777   1.443       .  S
C777        N779   1.157       .  T
C778        N780   1.157       .  T
C781        C782   1.403       .  A
C781        C786   1.419       .  A
C782        C783   1.399       .  A
C782        H787   1.085       .  S
C783        C784   1.414       .  A
C783        C790   1.446       .  S
C784        C785   1.398       .  A
C785        C786   1.398       .  A
C785        H788   1.085       .  S
C786        C789   1.445       .  S
C789        N791   1.157       .  T
C790        N792   1.157       .  T
C793        C794   1.408       .  A
C793        C798   1.413       .  A
C794        C795   1.398       .  A
C794        H799   1.083       .  S
C795        C796   1.409       .  A
C795        C802   1.445       .  S
C796        C797   1.405       .  A
C797        C798   1.403       .  A
C797        H800   1.084       .  S
C798        C801   1.443       .  S
C801        N803   1.157       .  T
C802        N804   1.157       .  T
C806        C807   1.403       .  A
C807        C808   1.415       .  A
C807        C814   1.444       .  S
C808        C809   1.407       .  A
C809        C810   1.402       .  A
C809        H812   1.084       .  S
C810        C813   1.444       .  S
C814        N816   1.157       .  T
C817        C818   1.404       .  A
C817        C822   1.417       .  A
C818        C819   1.403       .  A
C818        H823   1.083       .  S
C819        C820   1.418       .  A
C819        C826   1.444       .  S
C820        C821   1.402       .  A
C821        C822   1.399       .  A
C821        H824   1.083       .  S
C822        C825   1.445       .  S
C825        N827   1.157       .  T
C826        N828   1.157       .  T
C829        C830   1.406       .  A
C829        C834   1.407       .  A
C830        C831   1.405   1_556  A
C830        H835   1.084       .  S
C831        C832   1.414       .  A
C831        C838   1.444       .  S
C832        C833   1.409       .  A
C833        C834   1.397   1_554  A
C833        H836   1.083       .  S
C834        C837   1.444       .  S
C837        N839   1.157       .  T
C838        N840   1.157       .  T
C841        C842   1.403       .  A
C841        C846   1.416       .  A
C842        C843   1.402       .  A
C842        H847   1.085       .  S
C843        C844   1.416       .  A
C843        C850   1.444       .  S
C844        C845   1.401       .  A
C845        C846   1.399       .  A
C845        H848   1.085       .  S
C846        C849   1.444       .  S
C849        N851   1.157       .  T
C850        N852   1.157       .  T
C853        C858   1.418       .  A
C854        C855   1.402       .  A
C855        C856   1.418       .  A
C855        C862   1.444       .  S
C856        C857   1.402       .  A
C857        H860   1.084       .  S
C858        C861   1.445       .  S
C861        N863   1.157       .  T
C862        N864   1.157       .  T
C865        C866   1.406       .  A
C865        C870   1.412       .  A
C866        C867   1.397       .  A
C866        H871   1.084       .  S
C867        C868   1.410       .  A
C867        C874   1.444       .  S
C868        C869   1.407       .  A
C869        C870   1.402       .  A
C869        H872   1.084       .  S
C870        C873   1.444       .  S
C873        N875   1.157       .  T
C874        N876   1.157       .  T
C877        C878   1.406       .  A
C877        C882   1.411       .  A
C878        C879   1.402       .  A
C878        H883   1.085       .  S
C879        C880   1.413       .  A
C879        C886   1.444       .  S
C880        C881   1.409       .  A
C881        C882   1.403       .  A
C881        H884   1.085       .  S
C882        C885   1.444       .  S
C885        N887   1.157       .  T
C886        N888   1.157       .  T
