geometry optimzed in LAMMPS
_audit_creation_date              2020-12-01 
_audit_creation_method            'lammps2cif' 
_symmetry_space_group_name_H-M    'P1' 
_symmetry_Int_Tables_number       1 
_symmetry_cell_setting            triclinic 
loop_ 
_symmetry_equiv_pos_as_xyz 
  x,y,z 
_cell_length_a                    40.08326129 
_cell_length_b                    40.367115972545314 
_cell_length_c                    29.315157669124993 
_cell_angle_alpha                 89.97222107371903 
_cell_angle_beta                  89.9257774340394 
_cell_angle_gamma                 90.05058517756787 
loop_ 
_atom_site_label 
_atom_site_type_symbol 
_atom_site_fract_x 
_atom_site_fract_y 
_atom_site_fract_z 
_atom_site_charge 
In1        In  0.43202841  0.83118947  0.50415209     1.36900
C2          C  0.44432310  0.89557503  0.50530766     0.77500
O3          O  0.42359410  0.83263389  0.57915840    -0.61000
O4          O  0.46907502  0.81140342  0.55537324    -0.51900
C5          C  0.38062626  0.79040946  0.50548960     0.70100
O6          O  0.37665037  0.82150787  0.50232180    -0.46700
C7          C  0.45218067  0.81847444  0.41959756     0.74900
O8          O  0.41471981  0.88454829  0.50417501    -0.58600
O9          O  0.47016651  0.81177463  0.45388780    -0.48700
O10         O  0.46665167  0.87364161  0.50544005    -0.55000
C11         C  0.45107373  0.81926961  0.58927488     0.85000
O12         O  0.41065683  0.78091320  0.50729267    -0.56900
O13         O  0.42415974  0.83093259  0.42898936    -0.60200
In14       In  0.15935101  0.56792159  0.50450103     1.36900
C15         C  0.09529343  0.55134828  0.50421641     0.77500
O16         O  0.15592105  0.57965287  0.43038020    -0.61000
O17         O  0.18225930  0.53599316  0.45014895    -0.51900
C18         C  0.20115878  0.61844092  0.50867087     0.70100
O19         O  0.16988242  0.62298546  0.50520377    -0.46700
C20         C  0.17174907  0.54694746  0.58841168     0.74900
O21         O  0.10480286  0.58110897  0.50972994    -0.58600
O22         O  0.17877501  0.52945834  0.55373640    -0.48700
O23         O  0.11861198  0.53076507  0.49865357    -0.55000
C24         C  0.17206495  0.55434797  0.41787045     0.85000
O25         O  0.21017049  0.58842852  0.50956167    -0.56900
O26         O  0.15850857  0.57461701  0.57969588    -0.60200
In27       In  0.79371961  0.56398900  0.00084430     1.36900
C28         C  0.85776165  0.54952314  0.99423741     0.77500
O29         O  0.80263181  0.57356437  0.07471033    -0.61000
O30         O  0.77261486  0.53193597  0.05700255    -0.51900
C31         C  0.75358124  0.61540764  0.00334852     0.70100
O32         O  0.78486232  0.61909064  0.99858043    -0.46700
C33         C  0.77620002  0.54229215  0.91878384     0.74900
O34         O  0.84753946  0.57925189  0.99317792    -0.58600
O35         O  0.77384598  0.52417693  0.95398371    -0.48700
O36         O  0.83512205  0.52800351  0.99805033    -0.55000
C37         C  0.78575473  0.54909784  0.08848735     0.85000
O38         O  0.74373231  0.58570413  0.00629892    -0.56900
O39         O  0.78672178  0.57127504  0.92608695    -0.60200
In40       In  0.53162403  0.83541355  0.00356790     1.36900
C41         C  0.51554517  0.89835543  0.00087477     0.77500
O42         O  0.54155683  0.83614857  0.92879747    -0.61000
O43         O  0.49639647  0.81350767  0.95159670    -0.51900
C44         C  0.58167254  0.79384644  0.00714460     0.70100
O45         O  0.58668218  0.82479446  0.00311223    -0.46700
C46         C  0.51423804  0.82663213  0.09004453     0.74900
O47         O  0.54587221  0.88929824  0.00180505    -0.58600
O48         O  0.49635553  0.81604810  0.05738684    -0.48700
O49         O  0.49444213  0.87513876  0.00110750    -0.55000
C50         C  0.51478493  0.82157636  0.91806489     0.85000
O51         O  0.55138895  0.78512115  0.00916242    -0.56900
O52         O  0.54055565  0.84152346  0.07792084    -0.60200
In53       In  0.16282527  0.47154213  0.00493632     1.36900
C54         C  0.09824143  0.48518616  0.00379863     0.77500
O55         O  0.16346043  0.46451184  0.08008386    -0.61000
O56         O  0.18239888  0.51016343  0.05415305    -0.51900
C57         C  0.20327600  0.42005963  0.00634119     0.70100
O58         O  0.17183838  0.41650022  0.00817381    -0.46700
C59         C  0.17450899  0.48667232  0.91817107     0.74900
O60         O  0.10883107  0.45569708  0.00715927    -0.58600
O61         O  0.18442806  0.50508395  0.95053929    -0.48700
O62         O  0.12074549  0.50699875  0.00209855    -0.55000
C63         C  0.17597686  0.49247611  0.08884737     0.85000
O64         O  0.21325688  0.44976040  0.00402432    -0.56900
O65         O  0.15923447  0.46086502  0.93074629    -0.60200
In66       In  0.42183240  0.19562583  0.99062364     1.36900
C67         C  0.43763581  0.13268217  0.99322499     0.77500
O68         O  0.41395983  0.18949774  0.91617083    -0.61000
O69         O  0.45745333  0.21566730  0.93779555    -0.51900
C70         C  0.37189263  0.23803514  0.99144634     0.70100
O71         O  0.36651126  0.20702142  0.99183153    -0.46700
C72         C  0.44138800  0.20578303  0.07566833     0.74900
O73         O  0.40729732  0.14179540  0.99230420    -0.58600
O74         O  0.45879270  0.21527743  0.04189213    -0.48700
O75         O  0.45879510  0.15580625  0.99213675    -0.55000
C76         C  0.44047562  0.20435488  0.90476217     0.85000
O77         O  0.40232097  0.24627892  0.99005875    -0.56900
O78         O  0.41397215  0.19223351  0.06538632    -0.60200
In79       In  0.79028815  0.46861167  0.50387244     1.36900
C80         C  0.85518146  0.48185066  0.50691282     0.77500
O81         O  0.79161041  0.46107581  0.42895752    -0.61000
O82         O  0.77454765  0.50793252  0.45330161    -0.51900
C83         C  0.74855337  0.41816480  0.49881204     0.70100
O84         O  0.77991013  0.41379265  0.50020871    -0.46700
C85         C  0.77507153  0.48272132  0.58995598     0.74900
O86         O  0.84443431  0.45240960  0.50309601    -0.58600
O87         O  0.76540938  0.50103692  0.55731047    -0.48700
O88         O  0.83268747  0.50362305  0.50951785    -0.55000
C89         C  0.78105705  0.48964493  0.41923961     0.85000
O90         O  0.73931762  0.44811617  0.49989086    -0.56900
O91         O  0.79208014  0.45789804  0.57786255    -0.60200
In92       In  0.52654794  0.19680886  0.49030267     1.36900
C93         C  0.51082091  0.13368969  0.49278043     0.77500
O94         O  0.53633563  0.19560659  0.56524911    -0.61000
O95         O  0.48987899  0.21559905  0.54271731    -0.51900
C96         C  0.57578872  0.23962893  0.48891609     0.70100
O97         O  0.58132900  0.20865219  0.49051537    -0.46700
C98         C  0.51002640  0.20503176  0.40356879     0.74900
O99         O  0.54101312  0.14331631  0.49340524    -0.58600
O100        O  0.49179979  0.21544269  0.43603235    -0.48700
O101        O  0.48937980  0.15649599  0.49047808    -0.55000
C102        C  0.50841549  0.20776979  0.57614581     0.85000
O103        O  0.54530899  0.24783249  0.48782785    -0.56900
O104        O  0.53684202  0.19117619  0.41580120    -0.60200
C105        C  0.63168503  0.38169884  0.49629439    -0.17900
C106        C  0.60761407  0.35677934  0.49453226    -0.20100
C107        C  0.61719497  0.32345356  0.49191834     0.20600
C108        C  0.65131447  0.31499495  0.49088265    -0.03000
C109        C  0.67567806  0.34022739  0.49244306    -0.06100
C110        C  0.66569565  0.37366632  0.49527744     0.20800
C111        C  0.70991245  0.33204918  0.49138112     0.19000
C112        C  0.71936017  0.29859304  0.48865119    -0.17600
C113        C  0.69514396  0.27350178  0.48732401    -0.19800
C114        C  0.66102722  0.28141113  0.48853511     0.20500
C115        C  0.63640944  0.25649060  0.48769098    -0.32800
C116        C  0.60235866  0.26499364  0.48887305     0.01200
C117        C  0.59310370  0.29850837  0.49066677    -0.24100
C118        C  0.68982310  0.39861071  0.49718796    -0.28700
C119        C  0.72398383  0.39086310  0.49630223     0.06800
C120        C  0.73394780  0.35749102  0.49327340    -0.27400
H121        H  0.62369233  0.40728648  0.49848735     0.11600
H122        H  0.58147119  0.36357544  0.49540387     0.12700
H123        H  0.74549832  0.29181320  0.48773951     0.11800
H124        H  0.70311187  0.24789729  0.48544101     0.11000
H125        H  0.64368659  0.23065754  0.48621858     0.16400
H126        H  0.56694634  0.30530834  0.49161137     0.12300
H127        H  0.68188597  0.42422556  0.49954353     0.15200
H128        H  0.76026255  0.35136019  0.49251644     0.14900
C129        C  0.53948150  0.21302536  0.23936472    -0.17900
C130        C  0.52982152  0.21394633  0.19341415    -0.20100
C131        C  0.49595791  0.21223778  0.18136249     0.20600
C132        C  0.47161139  0.20988146  0.21610407    -0.03000
C133        C  0.48131762  0.20945143  0.26245407    -0.06100
C134        C  0.51543646  0.21071249  0.27416807     0.20800
C135        C  0.45683513  0.20743226  0.29704228     0.19000
C136        C  0.42303246  0.20542876  0.28507611    -0.17600
C137        C  0.41347010  0.20535789  0.23924983    -0.19800
C138        C  0.43752819  0.20757101  0.20458035     0.20500
C139        C  0.42805184  0.20701812  0.15860677    -0.32800
C140        C  0.45206251  0.20916781  0.12373775     0.01200
C141        C  0.48598689  0.21225425  0.13530213    -0.24100
C142        C  0.52479103  0.20938305  0.32042209    -0.28700
C143        C  0.50037906  0.20776293  0.35500584     0.06800
C144        C  0.46651451  0.20710209  0.34300229    -0.27400
H145        H  0.56578912  0.21409605  0.24768430     0.11600
H146        H  0.54887797  0.21568515  0.16727249     0.12700
H147        H  0.40396146  0.20368809  0.31119991     0.11800
H148        H  0.38720454  0.20352467  0.23091305     0.11000
H149        H  0.40186811  0.20466581  0.14990797     0.16400
H150        H  0.50462385  0.21355485  0.10852802     0.12300
H151        H  0.55098683  0.20982659  0.32957340     0.15200
H152        H  0.44769319  0.20534797  0.36950171     0.14900
C153        C  0.52620877  0.22444672  0.78546613    -0.17900
C154        C  0.53576091  0.22458062  0.73943275    -0.20100
C155        C  0.51240665  0.21764603  0.70500938     0.20600
C156        C  0.47910006  0.21048088  0.71717749    -0.03000
C157        C  0.46962807  0.20969935  0.76366253    -0.06100
C158        C  0.49322739  0.21693600  0.79800615     0.20800
C159        C  0.43658450  0.20140111  0.77572168     0.19000
C160        C  0.41327107  0.19427850  0.74142718    -0.17600
C161        C  0.42248704  0.19562317  0.69544181    -0.19800
C162        C  0.45528410  0.20373395  0.68292488     0.20500
C163        C  0.46476578  0.20463744  0.63679668    -0.32800
C164        C  0.49802024  0.21092457  0.62442660     0.01200
C165        C  0.52177251  0.21730476  0.65871132    -0.24100
C166        C  0.48347991  0.21612712  0.84417747    -0.28700
C167        C  0.45063444  0.20743232  0.85633556     0.06800
C168        C  0.42741765  0.20010940  0.82184136    -0.27400
H169        H  0.54471057  0.22994632  0.81129703     0.11600
H170        H  0.56144367  0.23014347  0.73074414     0.12700
H171        H  0.38782949  0.18773845  0.75017301     0.11800
H172        H  0.40398082  0.19008504  0.66963284     0.11000
H173        H  0.44657089  0.19908375  0.61054126     0.16400
H174        H  0.54751653  0.22196772  0.64927518     0.12300
H175        H  0.50158576  0.22148709  0.87060746     0.15200
H176        H  0.40207108  0.19336169  0.83090635     0.14900
C177        C  0.25324440  0.27392440  0.00642841    -0.17900
C178        C  0.22969703  0.29957347  0.00933019    -0.20100
C179        C  0.23981724  0.33288903  0.00717353     0.20600
C180        C  0.27407250  0.34033237  0.00255672    -0.03000
C181        C  0.29773414  0.31454679  0.99951557    -0.06100
C182        C  0.28736721  0.28110433  0.00129114     0.20800
C183        C  0.33182317  0.32234467  0.99450188     0.19000
C184        C  0.34213775  0.35550234  0.99298880    -0.17600
C185        C  0.31879180  0.38095235  0.99607149    -0.19800
C186        C  0.28477617  0.37361215  0.00059363     0.20500
C187        C  0.26133954  0.39911752  0.00262598    -0.32800
C188        C  0.22712348  0.39212832  0.00632172     0.01200
C189        C  0.21643660  0.35892108  0.00901995    -0.24100
C190        C  0.31138831  0.25565491  0.99805388    -0.28700
C191        C  0.34546399  0.26357021  0.99316392     0.06800
C192        C  0.35522804  0.29695517  0.99121274    -0.27400
H193        H  0.24474330  0.24846557  0.00804088     0.11600
H194        H  0.20353809  0.29333893  0.01302931     0.12700
H195        H  0.36829960  0.36176614  0.98930721     0.11800
H196        H  0.32733231  0.40640957  0.99462399     0.11000
H197        H  0.26984162  0.42458923  0.00069325     0.16400
H198        H  0.19006715  0.35337648  0.01207645     0.12300
H199        H  0.30368397  0.22993866  0.99970577     0.15200
H200        H  0.38136136  0.30337288  0.98743818     0.14900
C201        C  0.41391349  0.01264290  0.98777014    -0.17900
C202        C  0.42516740  0.97990462  0.98844024    -0.20100
C203        C  0.45921993  0.97294077  0.99393633     0.20600
C204        C  0.48223911  0.99905923  0.99903011    -0.03000
C205        C  0.47088227  0.03206648  0.99838401    -0.06100
C206        C  0.43654752  0.03889885  0.99258853     0.20800
C207        C  0.49389984  0.05820389  0.00327579     0.19000
C208        C  0.52792173  0.05122876  0.00921141    -0.17600
C209        C  0.53918478  0.01847054  0.00985209    -0.19800
C210        C  0.51658701  0.99220675  0.00459098     0.20500
C211        C  0.52765908  0.95923223  0.00479831    -0.32800
C212        C  0.50472698  0.93318881  0.99978742     0.01200
C213        C  0.47061107  0.94026432  0.99440437    -0.24100
C214        C  0.42551652  0.07184731  0.99138069    -0.28700
C215        C  0.44845826  0.09790862  0.99561235     0.06800
C216        C  0.48253646  0.09089143  0.00182015    -0.27400
H217        H  0.38752152  0.01742797  0.98332699     0.11600
H218        H  0.40723109  0.96000781  0.98454537     0.12700
H219        H  0.54584882  0.07112988  0.01314844     0.11800
H220        H  0.56557422  0.01368228  0.01431506     0.11000
H221        H  0.55395570  0.95384185  0.00914680     0.16400
H222        H  0.45277564  0.92025668  0.99049822     0.12300
H223        H  0.39924718  0.07720180  0.98665077     0.15200
H224        H  0.50036225  0.11094017  0.00540562     0.14900
C225        C  0.97853711  0.45486870  0.00885939    -0.17900
C226        C  0.94491171  0.46397093  0.00662329    -0.20100
C227        C  0.93588566  0.49713156  0.99917566     0.20600
C228        C  0.96089982  0.52131009  0.99318805    -0.03000
C229        C  0.99482100  0.51210012  0.99525953    -0.06100
C230        C  0.00369285  0.47875236  0.00350170     0.20800
C231        C  0.01982406  0.53632637  0.98955059     0.19000
C232        C  0.01079147  0.56936409  0.98116428    -0.17600
C233        C  0.97718025  0.57851726  0.97936114    -0.19800
C234        C  0.95204779  0.55476331  0.98574171     0.20500
C235        C  0.91827161  0.56393315  0.98545591    -0.32800
C236        C  0.89329121  0.54002409  0.99220138     0.01200
C237        C  0.90229443  0.50661380  0.99835484    -0.24100
C238        C  0.03752517  0.46993878  0.00642058    -0.28700
C239        C  0.06252536  0.49406610  0.00118609     0.06800
C240        C  0.05343334  0.52715920  0.99259218    -0.27400
H241        H  0.98486683  0.42916577  0.01503313     0.11600
H242        H  0.92594639  0.44510821  0.01117177     0.12700
H243        H  0.02974996  0.58820775  0.97642804     0.11800
H244        H  0.97084791  0.60423941  0.97334244     0.11000
H245        H  0.91145408  0.58966288  0.98046564     0.16400
H246        H  0.88314087  0.48799201  0.00346298     0.12300
H247        H  0.04438379  0.44439489  0.01288778     0.15200
H248        H  0.07257329  0.54588754  0.98819138     0.14900
C249        C  0.78900990  0.45902567  0.79726747    -0.17900
C250        C  0.78914439  0.45098990  0.75086928    -0.20100
C251        C  0.77689140  0.47347062  0.71842730     0.20600
C252        C  0.76344335  0.50396434  0.73285337    -0.03000
C253        C  0.76358364  0.51222055  0.77973223    -0.06100
C254        C  0.77675587  0.48975098  0.81202501     0.20800
C255        C  0.75177293  0.54343620  0.79404925     0.19000
C256        C  0.73832279  0.56536402  0.76172722    -0.17600
C257        C  0.73780785  0.55700340  0.71532672    -0.19800
C258        C  0.75102916  0.52668777  0.70033576     0.20500
C259        C  0.75330715  0.51921097  0.65344644    -0.32800
C260        C  0.76828821  0.48949811  0.63888024     0.01200
C261        C  0.77906069  0.46643336  0.67173953    -0.24100
C262        C  0.77866393  0.49891118  0.85819528    -0.28700
C263        C  0.76868526  0.53065681  0.87215919     0.06800
C264        C  0.75478600  0.55260375  0.84010445    -0.27400
H265        H  0.79921196  0.44149660  0.82151796     0.11600
H266        H  0.79946226  0.42741224  0.74026304     0.12700
H267        H  0.72881522  0.58929843  0.77222191     0.11800
H268        H  0.72790224  0.57465703  0.69102340     0.11000
H269        H  0.74470603  0.53700789  0.62839515     0.16400
H270        H  0.79025935  0.44328256  0.66094983     0.12300
H271        H  0.78972300  0.48212537  0.88278316     0.15200
H272        H  0.74701375  0.57709870  0.85092335     0.14900
C273        C  0.75642657  0.46274614  0.25895093    -0.17900
C274        C  0.75690915  0.47105721  0.21261539    -0.20100
C275        C  0.76826445  0.50229625  0.19840912     0.20600
C276        C  0.77882251  0.52557960  0.23134831    -0.03000
C277        C  0.77775077  0.51741034  0.27821934    -0.06100
C278        C  0.76689013  0.48568095  0.29195179     0.20800
C279        C  0.78804698  0.54076968  0.31124254     0.19000
C280        C  0.79962264  0.57193120  0.29699576    -0.17600
C281        C  0.80116731  0.57983772  0.25051650    -0.19800
C282        C  0.79085105  0.55684356  0.21744876     0.20500
C283        C  0.79269583  0.56440054  0.17073594    -0.32800
C284        C  0.78229481  0.54127785  0.13767069     0.01200
C285        C  0.76971665  0.51044005  0.15184349    -0.24100
C286        C  0.76728124  0.47722738  0.33835385    -0.28700
C287        C  0.77752193  0.50032097  0.37137260     0.06800
C288        C  0.78728669  0.53225551  0.35777161    -0.27400
H289        H  0.74796332  0.43830113  0.26897620     0.11600
H290        H  0.74876340  0.45287903  0.18782305     0.12700
H291        H  0.80781697  0.59008567  0.32179241     0.11800
H292        H  0.81050522  0.60395111  0.24041673     0.11000
H293        H  0.80234025  0.58829061  0.16009727     0.16400
H294        H  0.76181167  0.49247492  0.12658647     0.12300
H295        H  0.75984360  0.45253695  0.34887868     0.15200
H296        H  0.79571852  0.54987098  0.38318717     0.14900
C297        C  0.61483752  0.67819603  0.02711098    -0.17900
C298        C  0.63878921  0.65322926  0.02607452    -0.20100
C299        C  0.67220193  0.66088809  0.01667563     0.20600
C300        C  0.68180833  0.69399697  0.00863537    -0.03000
C301        C  0.65754159  0.71924541  0.00947230    -0.06100
C302        C  0.62395790  0.71113685  0.01858296     0.20800
C303        C  0.66675737  0.75244277  0.00083995     0.19000
C304        C  0.70036689  0.76001456  0.99200577    -0.17600
C305        C  0.72454300  0.73491260  0.99141231    -0.19800
C306        C  0.71551505  0.70177314  0.99944972     0.20500
C307        C  0.73937588  0.67619072  0.99815127    -0.32800
C308        C  0.72962213  0.64310215  0.00554114     0.01200
C309        C  0.69605826  0.63582780  0.01495037    -0.24100
C310        C  0.59985721  0.73598034  0.01850895    -0.28700
C311        C  0.60853057  0.76898809  0.00916157     0.06800
C312        C  0.64209501  0.77725814  0.00077339    -0.27400
H313        H  0.58911260  0.67170132  0.03423437     0.11600
H314        H  0.63115159  0.62788380  0.03243602     0.12700
H315        H  0.70794304  0.78533595  0.98537205     0.11800
H316        H  0.75027313  0.74139551  0.98436985     0.11000
H317        H  0.76527313  0.68192487  0.99094353     0.16400
H318        H  0.68833672  0.61043977  0.02092856     0.12300
H319        H  0.57408032  0.72942860  0.02530621     0.15200
H320        H  0.64887718  0.80273118  0.99357431     0.14900
C321        C  0.94214500  0.56723217  0.52396096    -0.17900
C322        C  0.97554478  0.57718570  0.52296971    -0.20100
C323        C  0.00087078  0.55412888  0.51407941     0.20600
C324        C  0.99243668  0.52061356  0.50624064    -0.03000
C325        C  0.95864318  0.51055499  0.50714200    -0.06100
C326        C  0.93346392  0.53405536  0.51596034     0.20800
C327        C  0.95005645  0.47709826  0.49909402     0.19000
C328        C  0.97547459  0.45400744  0.49044194    -0.17600
C329        C  0.00899134  0.46395596  0.48969428    -0.19800
C330        C  0.01772233  0.49720314  0.49747859     0.20500
C331        C  0.05123709  0.50748618  0.49672400    -0.32800
C332        C  0.05981712  0.54091580  0.50448092     0.01200
C333        C  0.03444112  0.56404982  0.51302305    -0.24100
C334        C  0.89998459  0.52411299  0.51633297    -0.28700
C335        C  0.89103264  0.49095336  0.50793327     0.06800
C336        C  0.91624876  0.46746548  0.49959188    -0.27400
H337        H  0.92305299  0.58555221  0.53084288     0.11600
H338        H  0.98156736  0.60296793  0.52914671     0.12700
H339        H  0.96943541  0.42823932  0.48419758     0.11800
H340        H  0.02810102  0.44563035  0.48294213     0.11000
H341        H  0.07065085  0.48942821  0.49012296     0.16400
H342        H  0.04082489  0.58977212  0.51911023     0.12300
H343        H  0.88078247  0.54239892  0.52293070     0.15200
H344        H  0.90956557  0.44188697  0.49301486     0.14900
C345        C  0.16611857  0.45397353  0.75623478    -0.17900
C346        C  0.16631426  0.46214224  0.70981271    -0.20100
C347        C  0.17399128  0.49447878  0.69564304     0.20600
C348        C  0.18231630  0.51862673  0.72864425    -0.03000
C349        C  0.18255859  0.51025686  0.77548613    -0.06100
C350        C  0.17387827  0.47791885  0.78931454     0.20800
C351        C  0.19055686  0.53448690  0.80850524     0.19000
C352        C  0.19876847  0.56668370  0.79427918    -0.17600
C353        C  0.19804825  0.57510255  0.74795854    -0.19800
C354        C  0.18942071  0.55139202  0.71498338     0.20500
C355        C  0.18680173  0.56009623  0.66877596    -0.32800
C356        C  0.17793221  0.53634382  0.63586895     0.01200
C357        C  0.17243875  0.50337984  0.64928608    -0.24100
C358        C  0.17225356  0.47031941  0.83598793    -0.28700
C359        C  0.17938596  0.49451949  0.86919276     0.06800
C360        C  0.18925028  0.52636488  0.85515090    -0.27400
H361        H  0.15948491  0.42899051  0.76630778     0.11600
H362        H  0.15982683  0.44330718  0.68503527     0.12700
H363        H  0.20507759  0.58556674  0.81907330     0.11800
H364        H  0.20379157  0.60031934  0.73797231     0.11000
H365        H  0.19121026  0.58551588  0.65838216     0.16400
H366        H  0.16531731  0.48512383  0.62398068     0.12300
H367        H  0.16483660  0.44563152  0.84649789     0.15200
H368        H  0.19473276  0.54513009  0.88050382     0.14900
C369        C  0.16924848  0.58693083  0.25503177    -0.17900
C370        C  0.17068363  0.57845174  0.20872860    -0.20100
C371        C  0.17733791  0.54571380  0.19539433     0.20600
C372        C  0.18331154  0.52144235  0.22915951    -0.03000
C373        C  0.18238537  0.53011061  0.27585564    -0.06100
C374        C  0.17478864  0.56289668  0.28885340     0.20800
C375        C  0.18826771  0.50576598  0.30951972     0.19000
C376        C  0.19522190  0.47311116  0.29624393    -0.17600
C377        C  0.19556167  0.46440923  0.25007575    -0.19800
C378        C  0.18933552  0.48829903  0.21634939     0.20500
C379        C  0.18807057  0.47941886  0.17014877    -0.32800
C380        C  0.18150599  0.50328765  0.13639248     0.01200
C381        C  0.17705712  0.53656595  0.14906892    -0.24100
C382        C  0.17216234  0.57084331  0.33539753    -0.28700
C383        C  0.17753119  0.54653604  0.36910163     0.06800
C384        C  0.18624990  0.51425254  0.35586431    -0.27400
H385        H  0.16349036  0.61225220  0.26440040     0.11600
H386        H  0.16598562  0.59739672  0.18334664     0.12700
H387        H  0.19980009  0.45413708  0.32162769     0.11800
H388        H  0.20035135  0.43887920  0.24075832     0.11000
H389        H  0.19160953  0.45374229  0.16041712     0.16400
H390        H  0.17164749  0.55493944  0.12312973     0.12300
H391        H  0.16556568  0.59585166  0.34539892     0.15200
H392        H  0.19024600  0.49540472  0.38164102     0.14900
C393        C  0.42311498  0.04768345  0.49415441    -0.17900
C394        C  0.41356751  0.01436832  0.49681474    -0.20100
C395        C  0.43771594  0.98942098  0.50125472     0.20600
C396        C  0.47180936  0.99823597  0.50355187    -0.03000
C397        C  0.48143042  0.03178857  0.50091626    -0.06100
C398        C  0.45696677  0.05659780  0.49601226     0.20800
C399        C  0.51556610  0.04045364  0.50287648     0.19000
C400        C  0.53969869  0.01561252  0.50777239    -0.17600
C401        C  0.53018096  0.98238672  0.51032047    -0.19800
C402        C  0.49638004  0.97350108  0.50798975     0.20500
C403        C  0.48683402  0.94022510  0.50934024    -0.32800
C404        C  0.45304633  0.93110349  0.50612994     0.01200
C405        C  0.42850492  0.95582129  0.50272419    -0.24100
C406        C  0.46683867  0.08984980  0.49304975    -0.28700
C407        C  0.50084339  0.09858442  0.49501137     0.06800
C408        C  0.52502958  0.07377950  0.49987423    -0.27400
H409        H  0.40402118  0.06647889  0.49047932     0.11600
H410        H  0.38731105  0.00809955  0.49506151     0.12700
H411        H  0.56596435  0.02186872  0.50942310     0.11800
H412        H  0.54929767  0.96359348  0.51380198     0.11000
H413        H  0.50591151  0.92132021  0.51230071     0.16400
H414        H  0.40242204  0.94890823  0.50044015     0.12300
H415        H  0.44802011  0.10893328  0.48931558     0.15200
H416        H  0.55121848  0.08041278  0.50150054     0.14900
C417        C  0.43233570  0.80097001  0.21190663    -0.17900
C418        C  0.42383784  0.79939883  0.25819366    -0.20100
C419        C  0.44775159  0.80613752  0.29189511     0.20600
C420        C  0.48073261  0.81394159  0.27889512    -0.03000
C421        C  0.48916321  0.81607883  0.23213790    -0.06100
C422        C  0.46481807  0.80962091  0.19846671     0.20800
C423        C  0.52175131  0.82531781  0.21912698     0.19000
C424        C  0.54580398  0.83155271  0.25285010    -0.17600
C425        C  0.53758055  0.82898793  0.29914597    -0.19800
C426        C  0.50506195  0.82048563  0.31257319     0.20500
C427        C  0.49612595  0.81960403  0.35896486    -0.32800
C428        C  0.46292236  0.81353538  0.37188795     0.01200
C429        C  0.43901011  0.80630608  0.33826827    -0.24100
C430        C  0.47323905  0.81242133  0.15202443    -0.28700
C431        C  0.50550919  0.82222875  0.13884216     0.06800
C432        C  0.52961842  0.82854725  0.17266275    -0.27400
H433        H  0.41333861  0.79590733  0.18658460     0.11600
H434        H  0.39842827  0.79325817  0.26763132     0.12700
H435        H  0.57096477  0.83863375  0.24341176     0.11800
H436        H  0.55653146  0.83421859  0.32447002     0.11000
H437        H  0.51449813  0.82553296  0.38482851     0.16400
H438        H  0.41338861  0.80153334  0.34824532     0.12300
H439        H  0.45451442  0.80765664  0.12619042     0.15200
H440        H  0.55460326  0.83599765  0.16280635     0.14900
C441        C  0.54666464  0.81532360  0.75524104    -0.17900
C442        C  0.53783352  0.81449484  0.70903844    -0.20100
C443        C  0.50418039  0.81277433  0.69605448     0.20600
C444        C  0.47924193  0.81097685  0.73009052    -0.03000
C445        C  0.48819596  0.81122012  0.77673816    -0.06100
C446        C  0.52202669  0.81406043  0.78932306     0.20800
C447        C  0.46322640  0.80955333  0.81073654     0.19000
C448        C  0.42961316  0.80730343  0.79775332    -0.17600
C449        C  0.42071407  0.80766037  0.75160463    -0.19800
C450        C  0.44529325  0.80985360  0.71757850     0.20500
C451        C  0.43646993  0.81177890  0.67135329    -0.32800
C452        C  0.46111071  0.81412138  0.63729087     0.01200
C453        C  0.49495832  0.81379716  0.64977379    -0.24100
C454        C  0.53052588  0.81648863  0.83568809    -0.28700
C455        C  0.50571809  0.81556179  0.86975427     0.06800
C456        C  0.47220324  0.81121673  0.85704136    -0.27400
H457        H  0.57278179  0.81734309  0.76432129     0.11600
H458        H  0.55731333  0.81586767  0.68344453     0.12700
H459        H  0.41012494  0.80596339  0.82333728     0.11800
H460        H  0.39453784  0.80659628  0.74253321     0.11000
H461        H  0.41033353  0.81183213  0.66184197     0.16400
H462        H  0.51401063  0.81582892  0.62363257     0.12300
H463        H  0.55645456  0.81961848  0.84527420     0.15200
H464        H  0.45298353  0.81063395  0.88308573     0.14900
C465        C  0.34169180  0.67734438  0.53606728    -0.17900
C466        C  0.31652298  0.65347463  0.53727793    -0.20100
C467        C  0.28376813  0.66179161  0.52508513     0.20600
C468        C  0.27604182  0.69459894  0.51237499    -0.03000
C469        C  0.30149516  0.71879742  0.51133914    -0.06100
C470        C  0.33446097  0.70992581  0.52284248     0.20800
C471        C  0.29408326  0.75167435  0.49836431     0.19000
C472        C  0.26112786  0.75998136  0.48679330    -0.17600
C473        C  0.23586797  0.73589933  0.48761659    -0.19800
C474        C  0.24305823  0.70306958  0.50014645     0.20500
C475        C  0.21811552  0.67841637  0.49998376    -0.32800
C476        C  0.22603280  0.64548766  0.51152739     0.01200
C477        C  0.25879851  0.63762170  0.52463884    -0.24100
C478        C  0.35978168  0.73365930  0.52068270    -0.28700
C479        C  0.35282185  0.76640777  0.50765298     0.06800
C480        C  0.31983594  0.77544026  0.49688241    -0.27400
H481        H  0.36688662  0.67025782  0.54519322     0.11600
H482        H  0.32275786  0.62838615  0.54726823     0.12700
H483        H  0.25492082  0.78506605  0.47677198     0.11800
H484        H  0.21072989  0.74291637  0.47815064     0.11000
H485        H  0.19288300  0.68463521  0.48988883     0.16400
H486        H  0.26505908  0.61239661  0.53403007     0.12300
H487        H  0.38507689  0.72655832  0.52936421     0.15200
H488        H  0.31434605  0.80068876  0.48679236     0.14900
loop_ 
_geom_bond_atom_site_label_1 
_geom_bond_atom_site_label_2 
_geom_bond_distance 
_geom_bond_site_symmetry_2 
_ccdc_geom_bond_type 
In1           O3   2.225       .  S
In1           O4   2.259       .  S
In1          O12   2.204       .  S
In1           O6   2.254       .  S
In1           O8   2.264       .  S
In1           O9   2.263       .  S
In1          O10   2.205       .  S
In1          O13   2.226       .  S
C2            O8   1.267       .  A
C2           O10   1.260       .  A
C2          C404   1.476       .  S
O3           C11   1.263       .  A
O4           C11   1.268       .  A
C5           O12   1.265       .  A
C5            O6   1.269       .  A
C5          C479   1.477       .  S
C7            O9   1.267       .  A
C7           O13   1.261       .  A
C7          C428   1.477       .  S
C11         C452   1.479       .  S
In14         O16   2.228       .  S
In14         O17   2.246       .  S
In14         O25   2.203       .  S
In14         O19   2.262       .  S
In14         O21   2.256       .  S
In14         O22   2.259       .  S
In14         O23   2.223       .  S
In14         O26   2.221       .  S
C15          O21   1.271       .  A
C15          O23   1.262       .  A
C15         C332   1.483       .  S
O16          C24   1.264       .  A
O17          C24   1.270       .  A
C18          O25   1.265       .  A
C18          O19   1.271       .  A
C18         C476   1.480       .  S
C20          O22   1.269       .  A
C20          O26   1.263       .  A
C20         C356   1.477       .  S
C24         C383   1.480       .  S
In27         O29   2.229       .  S
In27         O30   2.257       .  S
In27         O38   2.193       .  S
In27         O32   2.254   1_554  S
In27         O34   2.254   1_554  S
In27         O35   2.260   1_554  S
In27         O36   2.208   1_554  S
In27         O39   2.229   1_554  S
C28          O34   1.269       .  A
C28          O36   1.260       .  A
C28         C236   1.476       .  S
O29          C37   1.263       .  A
O30          C37   1.269       .  A
C31          O38   1.265       .  A
C31          O32   1.270   1_554  A
C31         C308   1.476       .  S
C33          O35   1.268       .  A
C33          O39   1.262       .  A
C33         C263   1.477       .  S
C37         C284   1.482       .  S
In40         O42   2.227   1_554  S
In40         O43   2.259   1_554  S
In40         O51   2.186       .  S
In40         O45   2.249       .  S
In40         O47   2.249       .  S
In40         O48   2.256       .  S
In40         O49   2.191       .  S
In40         O52   2.223       .  S
C41          O47   1.270       .  A
C41          O49   1.262       .  A
C41         C212   1.472   1_554  S
O42          C50   1.264       .  A
O43          C50   1.270       .  A
C44          O51   1.265       .  A
C44          O45   1.271       .  A
C44         C311   1.474       .  S
C46          O48   1.271       .  A
C46          O52   1.264       .  A
C46         C431   1.483       .  S
C50         C455   1.483       .  S
In53         O55   2.221       .  S
In53         O56   2.265       .  S
In53         O64   2.205       .  S
In53         O58   2.253       .  S
In53         O60   2.257       .  S
In53         O61   2.262   1_554  S
In53         O62   2.215       .  S
In53         O65   2.222   1_554  S
C54          O60   1.268       .  A
C54          O62   1.261       .  A
C54         C239   1.478       .  S
O55          C63   1.262       .  A
O56          C63   1.268       .  A
C57          O64   1.265       .  A
C57          O58   1.269       .  A
C57         C188   1.479       .  S
C59          O61   1.270       .  A
C59          O65   1.263       .  A
C59         C359   1.483       .  S
C63         C380   1.478       .  S
In66         O68   2.220       .  S
In66         O69   2.254       .  S
In66         O77   2.190       .  S
In66         O71   2.265       .  S
In66         O73   2.250       .  S
In66         O74   2.256   1_556  S
In66         O75   2.187       .  S
In66         O78   2.218   1_556  S
C67          O73   1.271       .  A
C67          O75   1.261       .  A
C67         C215   1.471       .  S
O68          C76   1.264       .  A
O69          C76   1.269       .  A
C70          O77   1.265       .  A
C70          O71   1.270       .  A
C70         C191   1.480       .  S
C72          O74   1.269       .  A
C72          O78   1.264       .  A
C72         C140   1.480       .  S
C76         C167   1.482       .  S
In79         O81   2.218       .  S
In79         O82   2.262       .  S
In79         O90   2.207       .  S
In79         O84   2.254       .  S
In79         O86   2.267       .  S
In79         O87   2.272       .  S
In79         O88   2.216       .  S
In79         O91   2.213       .  S
C80          O86   1.269       .  A
C80          O88   1.262       .  A
C80         C335   1.483       .  S
O81          C89   1.261       .  A
O82          C89   1.269       .  A
C83          O90   1.265       .  A
C83          O84   1.270       .  A
C83         C119   1.479       .  S
C85          O87   1.270       .  A
C85          O91   1.263       .  A
C85         C260   1.485       .  S
C89         C287   1.475       .  S
In92         O94   2.233       .  S
In92         O95   2.257       .  S
In92        O103   2.193       .  S
In92         O97   2.247       .  S
In92         O99   2.238       .  S
In92        O100   2.246       .  S
In92        O101   2.205       .  S
In92        O104   2.234       .  S
C93          O99   1.271       .  A
C93         O101   1.262       .  A
C93         C407   1.474       .  S
O94         C102   1.263       .  A
O95         C102   1.271       .  A
C96         O103   1.267       .  A
C96          O97   1.271       .  A
C96         C116   1.477       .  S
C98         O100   1.271       .  A
C98         O104   1.264       .  A
C98         C143   1.480       .  S
C102        C164   1.480       .  S
C105        C106   1.394       .  A
C105        C110   1.402       .  A
C105        H121   1.084       .  S
C106        C107   1.401       .  A
C106        H122   1.084       .  S
C107        C117   1.395       .  A
C107        C108   1.410       .  A
C108        C114   1.412       .  A
C108        C109   1.411       .  A
C109        C111   1.412       .  A
C109        C110   1.411       .  A
C110        C118   1.397       .  A
C111        C120   1.409       .  A
C111        C112   1.405       .  A
C112        C113   1.403       .  A
C112        H123   1.083       .  S
C113        C114   1.405       .  A
C113        H124   1.083       .  S
C114        C115   1.409       .  A
C115        C116   1.408       .  A
C115        H125   1.084       .  S
C116        C117   1.404       .  A
C117        H126   1.084       .  S
C118        C119   1.405       .  A
C118        H127   1.084       .  S
C119        C120   1.408       .  A
C120        H128   1.084       .  S
C129        C130   1.403       .  A
C129        C134   1.406       .  A
C129        H145   1.083       .  S
C130        C131   1.405       .  A
C130        H146   1.084       .  S
C131        C141   1.409       .  A
C131        C132   1.413       .  A
C132        C138   1.411       .  A
C132        C133   1.414       .  A
C133        C135   1.412       .  A
C133        C134   1.411       .  A
C134        C142   1.408       .  A
C135        C144   1.403       .  A
C135        C136   1.402       .  A
C136        C137   1.397       .  A
C136        H147   1.084       .  S
C137        C138   1.403       .  A
C137        H148   1.084       .  S
C138        C139   1.401       .  A
C139        C140   1.406       .  A
C139        H149   1.084       .  S
C140        C141   1.407       .  A
C141        H150   1.084       .  S
C142        C143   1.410       .  A
C142        H151   1.084       .  S
C143        C144   1.403       .  A
C144        H152   1.084       .  S
C153        C154   1.402       .  A
C153        C158   1.405       .  A
C153        H169   1.084       .  S
C154        C155   1.405       .  A
C154        H170   1.083       .  S
C155        C165   1.408       .  A
C155        C156   1.411       .  A
C156        C162   1.413       .  A
C156        C157   1.414       .  A
C157        C159   1.410       .  A
C157        C158   1.413       .  A
C158        C166   1.409       .  A
C159        C168   1.402       .  A
C159        C160   1.403       .  A
C160        C161   1.398       .  A
C160        H171   1.084       .  S
C161        C162   1.403       .  A
C161        H172   1.084       .  S
C162        C163   1.405       .  A
C163        C164   1.404       .  A
C163        H173   1.084       .  S
C164        C165   1.409       .  A
C165        H174   1.084       .  S
C166        C167   1.408       .  A
C166        H175   1.084       .  S
C167        C168   1.406       .  A
C168        H176   1.084       .  S
C177        C178   1.404       .  A
C177        C182   1.406       .  A
C177        H193   1.083       .  S
C178        C179   1.406       .  A
C178        H194   1.083       .  S
C179        C189   1.410       .  A
C179        C180   1.412       .  A
C180        C186   1.411       .  A
C180        C181   1.412   1_554  A
C181        C183   1.409       .  A
C181        C182   1.413   1_556  A
C182        C190   1.412   1_554  A
C183        C192   1.393       .  A
C183        C184   1.401       .  A
C184        C185   1.393       .  A
C184        H195   1.084       .  S
C185        C186   1.401   1_556  A
C185        H196   1.084       .  S
C186        C187   1.396       .  A
C187        C188   1.404       .  A
C187        H197   1.084       .  S
C188        C189   1.409       .  A
C189        H198   1.084       .  S
C190        C191   1.410       .  A
C190        H199   1.084       .  S
C191        C192   1.404       .  A
C192        H200   1.084       .  S
C201        C202   1.397   1_545  A
C201        C206   1.402       .  A
C201        H217   1.084       .  S
C202        C203   1.403       .  A
C202        H218   1.084       .  S
C203        C213   1.396       .  A
C203        C204   1.409       .  A
C204        C210   1.414   1_556  A
C204        C205   1.409   1_565  A
C205        C207   1.408   1_556  A
C205        C206   1.414       .  A
C206        C214   1.402       .  A
C207        C216   1.397       .  A
C207        C208   1.404       .  A
C208        C209   1.398       .  A
C208        H219   1.084       .  S
C209        C210   1.403   1_545  A
C209        H220   1.084       .  S
C210        C211   1.404       .  A
C211        C212   1.404   1_554  A
C211        H221   1.084       .  S
C212        C213   1.406       .  A
C213        H222   1.084       .  S
C214        C215   1.402       .  A
C214        H223   1.084       .  S
C215        C216   1.407   1_556  A
C216        H224   1.084       .  S
C225        C226   1.399       .  A
C225        C230   1.403   1_655  A
C225        H241   1.084       .  S
C226        C227   1.404   1_554  A
C226        H242   1.084       .  S
C227        C237   1.400       .  A
C227        C228   1.409       .  A
C228        C234   1.413       .  A
C228        C229   1.411       .  A
C229        C231   1.409   1_655  A
C229        C230   1.413   1_656  A
C230        C238   1.405       .  A
C231        C240   1.400       .  A
C231        C232   1.404       .  A
C232        C233   1.398   1_455  A
C232        H243   1.083       .  S
C233        C234   1.402       .  A
C233        H244   1.084       .  S
C234        C235   1.404       .  A
C235        C236   1.404       .  A
C235        H245   1.084       .  S
C236        C237   1.408       .  A
C237        H246   1.084   1_556  S
C238        C239   1.405       .  A
C238        H247   1.084       .  S
C239        C240   1.408   1_554  A
C240        H248   1.084       .  S
C249        C250   1.398       .  A
C249        C254   1.403       .  A
C249        H265   1.084       .  S
C250        C251   1.404       .  A
C250        H266   1.084       .  S
C251        C261   1.401       .  A
C251        C252   1.409       .  A
C252        C258   1.414       .  A
C252        C253   1.414       .  A
C253        C255   1.410       .  A
C253        C254   1.414       .  A
C254        C262   1.405       .  A
C255        C264   1.405       .  A
C255        C256   1.405       .  A
C256        C257   1.402       .  A
C256        H267   1.084       .  S
C257        C258   1.404       .  A
C257        H268   1.083       .  S
C258        C259   1.410       .  A
C259        C260   1.408       .  A
C259        H269   1.084       .  S
C260        C261   1.408       .  A
C261        H270   1.084       .  S
C262        C263   1.404       .  A
C262        H271   1.084       .  S
C263        C264   1.407       .  A
C264        H272   1.084       .  S
C273        C274   1.399       .  A
C273        C278   1.404       .  A
C273        H289   1.084       .  S
C274        C275   1.403       .  A
C274        H290   1.084       .  S
C275        C285   1.405       .  A
C275        C276   1.413       .  A
C276        C282   1.410       .  A
C276        C277   1.413       .  A
C277        C279   1.413       .  A
C277        C278   1.411       .  A
C278        C286   1.402       .  A
C279        C288   1.407       .  A
C279        C280   1.404       .  A
C280        C281   1.401       .  A
C280        H291   1.084       .  S
C281        C282   1.405       .  A
C281        H292   1.084       .  S
C282        C283   1.405       .  A
C283        C284   1.409       .  A
C283        H293   1.084       .  S
C284        C285   1.405       .  A
C285        H294   1.084       .  S
C286        C287   1.406       .  A
C286        H295   1.085       .  S
C287        C288   1.404       .  A
C288        H296   1.084       .  S
C297        C298   1.393       .  A
C297        C302   1.401       .  A
C297        H313   1.084       .  S
C298        C299   1.401       .  A
C298        H314   1.084       .  S
C299        C309   1.394       .  A
C299        C300   1.410       .  A
C300        C306   1.412   1_554  A
C300        C301   1.410       .  A
C301        C303   1.412       .  A
C301        C302   1.410       .  A
C302        C310   1.393       .  A
C303        C312   1.408       .  A
C303        C304   1.405   1_554  A
C304        C305   1.403       .  A
C304        H315   1.083       .  S
C305        C306   1.405       .  A
C305        H316   1.083       .  S
C306        C307   1.409       .  A
C307        C308   1.408   1_556  A
C307        H317   1.084       .  S
C308        C309   1.404       .  A
C309        H318   1.084       .  S
C310        C311   1.404       .  A
C310        H319   1.084       .  S
C311        C312   1.407       .  A
C312        H320   1.084   1_554  S
C321        C322   1.398       .  A
C321        C326   1.403       .  A
C321        H337   1.084       .  S
C322        C323   1.402   1_655  A
C322        H338   1.084       .  S
C323        C333   1.404       .  A
C323        C324   1.413   1_455  A
C324        C330   1.410   1_655  A
C324        C325   1.414       .  A
C325        C327   1.413       .  A
C325        C326   1.409       .  A
C326        C334   1.400       .  A
C327        C336   1.410       .  A
C327        C328   1.404       .  A
C328        C329   1.402   1_655  A
C328        H339   1.083       .  S
C329        C330   1.406       .  A
C329        H340   1.083       .  S
C330        C331   1.406       .  A
C331        C332   1.411       .  A
C331        H341   1.084       .  S
C332        C333   1.404       .  A
C333        H342   1.084       .  S
C334        C335   1.407       .  A
C334        H343   1.084       .  S
C335        C336   1.408       .  A
C336        H344   1.084       .  S
C345        C346   1.400       .  A
C345        C350   1.404       .  A
C345        H361   1.084       .  S
C346        C347   1.403       .  A
C346        H362   1.083       .  S
C347        C357   1.407       .  A
C347        C348   1.414       .  A
C348        C354   1.410       .  A
C348        C349   1.414       .  A
C349        C351   1.413       .  A
C349        C350   1.410       .  A
C350        C358   1.403       .  A
C351        C360   1.407       .  A
C351        C352   1.404       .  A
C352        C353   1.400       .  A
C352        H363   1.083       .  S
C353        C354   1.404       .  A
C353        H364   1.084       .  S
C354        C355   1.403       .  A
C355        C356   1.406       .  A
C355        H365   1.085       .  S
C356        C357   1.404       .  A
C357        H366   1.084       .  S
C358        C359   1.409       .  A
C358        H367   1.084       .  S
C359        C360   1.406       .  A
C360        H368   1.084       .  S
C369        C370   1.401       .  A
C369        C374   1.405       .  A
C369        H385   1.084       .  S
C370        C371   1.404       .  A
C370        H386   1.084       .  S
C371        C381   1.408       .  A
C371        C372   1.413       .  A
C372        C378   1.411       .  A
C372        C373   1.414       .  A
C373        C375   1.413       .  A
C373        C374   1.411       .  A
C374        C382   1.406       .  A
C375        C384   1.404       .  A
C375        C376   1.403       .  A
C376        C377   1.398       .  A
C376        H387   1.084       .  S
C377        C378   1.404       .  A
C377        H388   1.084       .  S
C378        C379   1.402       .  A
C379        C380   1.406       .  A
C379        H389   1.085       .  S
C380        C381   1.405       .  A
C381        H390   1.084       .  S
C382        C383   1.409       .  A
C382        H391   1.084       .  S
C383        C384   1.404       .  A
C384        H392   1.084       .  S
C393        C394   1.400       .  A
C393        C398   1.405       .  A
C393        H409   1.084       .  S
C394        C395   1.404   1_545  A
C394        H410   1.084       .  S
C395        C405   1.406       .  A
C395        C396   1.414       .  A
C396        C402   1.409       .  A
C396        C397   1.410   1_565  A
C397        C399   1.413       .  A
C397        C398   1.410       .  A
C398        C406   1.402       .  A
C399        C408   1.400       .  A
C399        C400   1.401       .  A
C400        C401   1.396   1_545  A
C400        H411   1.084       .  S
C401        C402   1.403       .  A
C401        H412   1.084       .  S
C402        C403   1.397       .  A
C403        C404   1.406       .  A
C403        H413   1.084       .  S
C404        C405   1.405       .  A
C405        H414   1.084       .  S
C406        C407   1.409       .  A
C406        H415   1.084       .  S
C407        C408   1.402       .  A
C408        H416   1.084       .  S
C417        C418   1.400       .  A
C417        C422   1.404       .  A
C417        H433   1.083       .  S
C418        C419   1.404       .  A
C418        H434   1.084       .  S
C419        C429   1.403       .  A
C419        C420   1.411       .  A
C420        C426   1.413       .  A
C420        C421   1.414       .  A
C421        C423   1.410       .  A
C421        C422   1.413       .  A
C422        C430   1.407       .  A
C423        C432   1.404       .  A
C423        C424   1.404       .  A
C424        C425   1.400       .  A
C424        H435   1.084       .  S
C425        C426   1.403       .  A
C425        H436   1.084       .  S
C426        C427   1.406       .  A
C427        C428   1.405       .  A
C427        H437   1.084       .  S
C428        C429   1.406       .  A
C429        H438   1.085       .  S
C430        C431   1.406       .  A
C430        H439   1.084       .  S
C431        C432   1.409       .  A
C432        H440   1.084       .  S
C441        C442   1.401       .  A
C441        C446   1.405       .  A
C441        H457   1.084       .  S
C442        C443   1.404       .  A
C442        H458   1.084       .  S
C443        C453   1.407       .  A
C443        C444   1.413       .  A
C444        C450   1.410       .  A
C444        C445   1.414       .  A
C445        C447   1.413       .  A
C445        C446   1.410       .  A
C446        C454   1.405       .  A
C447        C456   1.406       .  A
C447        C448   1.403       .  A
C448        C449   1.400       .  A
C448        H459   1.084       .  S
C449        C450   1.404       .  A
C449        H460   1.084       .  S
C450        C451   1.403       .  A
C451        C452   1.407       .  A
C451        H461   1.084       .  S
C452        C453   1.406       .  A
C453        H462   1.084       .  S
C454        C455   1.409       .  A
C454        H463   1.084       .  S
C455        C456   1.405       .  A
C456        H464   1.084       .  S
C465        C466   1.395       .  A
C465        C470   1.402       .  A
C465        H481   1.084       .  S
C466        C467   1.402       .  A
C466        H482   1.084       .  S
C467        C477   1.397       .  A
C467        C468   1.410       .  A
C468        C474   1.413       .  A
C468        C469   1.412       .  A
C469        C471   1.412       .  A
C469        C470   1.411       .  A
C470        C478   1.396       .  A
C471        C480   1.409       .  A
C471        C472   1.405       .  A
C472        C473   1.403       .  A
C472        H483   1.083       .  S
C473        C474   1.405       .  A
C473        H484   1.083       .  S
C474        C475   1.410       .  A
C475        C476   1.408       .  A
C475        H485   1.084       .  S
C476        C477   1.405       .  A
C477        H486   1.084       .  S
C478        C479   1.404       .  A
C478        H487   1.084       .  S
C479        C480   1.408       .  A
C480        H488   1.084       .  S
