geometry optimzed in LAMMPS
_audit_creation_date              2020-12-01 
_audit_creation_method            'lammps2cif' 
_symmetry_space_group_name_H-M    'P1' 
_symmetry_Int_Tables_number       1 
_symmetry_cell_setting            triclinic 
loop_ 
_symmetry_equiv_pos_as_xyz 
  x,y,z 
_cell_length_a                    32.92970684 
_cell_length_b                    32.987770860091544 
_cell_length_c                    64.52391355591593 
_cell_angle_alpha                 89.8124039183152 
_cell_angle_beta                  90.20910822897218 
_cell_angle_gamma                 120.00134747506098 
loop_ 
_atom_site_label 
_atom_site_type_symbol 
_atom_site_fract_x 
_atom_site_fract_y 
_atom_site_fract_z 
_atom_site_charge 
In1        In  0.31504906  0.22935564  0.05794576     1.36900
C2          C  0.24430350  0.23451782  0.04129327     0.78200
O3          O  0.34052306  0.30280320  0.06672713    -0.60300
O4          O  0.38041040  0.29068102  0.04431012    -0.51200
C5          C  0.33180121  0.21164952  0.09586019     0.70800
O6          O  0.29689610  0.21608377  0.09136236    -0.46100
C7          C  0.29495892  0.15052173  0.03892577     0.75500
O8          O  0.24571671  0.22621029  0.06035440    -0.57900
O9          O  0.33283204  0.18831855  0.03534938    -0.48000
O10         O  0.27876678  0.23905566  0.03094144    -0.54300
C11         C  0.37435214  0.32032914  0.05424501     0.85700
O12         O  0.35869467  0.21675356  0.08093758    -0.56200
O13         O  0.26985213  0.15325347  0.05294439    -0.59500
In14       In  0.30878561  0.08512288  0.28336769     1.36900
C15         C  0.23867983  0.00910248  0.30036549     0.78200
O16         O  0.33955411  0.04109965  0.27445670    -0.60300
O17         O  0.37485174  0.09248165  0.29769924    -0.51200
C18         C  0.32171059  0.11247066  0.24410361     0.70800
O19         O  0.28672289  0.07492154  0.25026252    -0.46100
C20         C  0.29630336  0.15111081  0.30097294     0.75500
O21         O  0.23705411  0.02109266  0.28192468    -0.57900
O22         O  0.33143099  0.14662089  0.30506938    -0.48000
O23         O  0.27547255  0.03671161  0.31009732    -0.54300
C24         C  0.37299086  0.05923402  0.28721658     0.85700
O25         O  0.35069650  0.13598029  0.25818540    -0.56200
O26         O  0.26866148  0.12258217  0.28773844    -0.59500
In27       In  0.06544754  0.30336173  0.39495790     1.36900
C28         C  0.98862728  0.22950460  0.38063937     0.78200
O29         O  0.02115131  0.33338939  0.40448039    -0.60300
O30         O  0.07055362  0.36872330  0.38064986    -0.51200
C31         C  0.09802290  0.31770032  0.43332565     0.70800
O32         O  0.05807031  0.28459244  0.42842549    -0.46100
C33         C  0.12653277  0.28823750  0.37432874     0.75500
O34         O  0.00272221  0.23203116  0.39905130    -0.57900
O35         O  0.12522991  0.32571660  0.37216999    -0.48000
O36         O  0.01397599  0.26509557  0.36971262    -0.54300
C37         C  0.03765680  0.36643597  0.39157817     0.85700
O38         O  0.12190559  0.34359701  0.41848791    -0.56200
O39         O  0.09814088  0.26022178  0.38750216    -0.59500
In40       In  0.21694369  0.31511777  0.62073977     1.36900
C41         C  0.22421788  0.24847694  0.64009356     0.78200
O42         O  0.29157834  0.34219071  0.61238525    -0.60300
O43         O  0.27688460  0.38362620  0.63276774    -0.51200
C44         C  0.19573161  0.32260165  0.58186801     0.70800
O45         O  0.19709787  0.28738183  0.58865579    -0.46100
C46         C  0.13678328  0.29558300  0.63900533     0.75500
O47         O  0.22003547  0.24913305  0.62062212    -0.57900
O48         O  0.17331656  0.33549632  0.64075066    -0.48000
O49         O  0.22541812  0.28262542  0.64943538    -0.54300
C50         C  0.30778395  0.37836748  0.62346129     0.85700
O51         O  0.20624267  0.35468683  0.59500080    -0.56200
O52         O  0.14137369  0.26762906  0.62731255    -0.59500
In53       In  0.89264467  0.23166971  0.95553151     1.36900
C54         C  0.97029736  0.23850598  0.97193702     0.78200
O55         O  0.93138767  0.30709832  0.94627214    -0.60300
O56         O  0.87965062  0.28708351  0.96955849    -0.51200
C57         C  0.86485601  0.21401833  0.91624049     0.70800
O58         O  0.90428870  0.22095306  0.92231284    -0.46100
C59         C  0.82782484  0.15214633  0.97343842     0.75500
O60         O  0.95797530  0.22642519  0.95342383    -0.57900
O61         O  0.83195648  0.19143211  0.97764909    -0.48000
O62         O  0.94285287  0.24726970  0.98199705    -0.54300
C63         C  0.91043474  0.31985837  0.95863634     0.85700
O64         O  0.84009725  0.21725197  0.93031520    -0.56200
O65         O  0.85628897  0.15392378  0.95999777    -0.59500
In66       In  0.74699418  0.07979588  0.72914263     1.36900
C67         C  0.74383608  0.00636765  0.71110964     0.78200
O68         O  0.67289467  0.03443272  0.73907903    -0.60300
O69         O  0.68676443  0.08821445  0.71738531    -0.51200
C70         C  0.76750192  0.10828502  0.76813057     0.70800
O71         O  0.76117246  0.06930277  0.76193171    -0.46100
C72         C  0.82453148  0.14467533  0.71054301     0.75500
O73         O  0.75351122  0.01548559  0.73006844    -0.57900
O74         O  0.78502856  0.14117082  0.70704923    -0.48000
O75         O  0.73530925  0.03475773  0.70161127    -0.54300
C76         C  0.65642726  0.05429318  0.72800067     0.85700
O77         O  0.76274675  0.13262297  0.75420833    -0.56200
O78         O  0.82364728  0.11558804  0.72349505    -0.59500
In79       In  0.64017209  0.88256693  0.29419268     1.36900
C80         C  0.71241408  0.95200190  0.31328575     0.78200
O81         O  0.61763813  0.93408199  0.28702116    -0.60300
O82         O  0.57170179  0.87561966  0.30542146    -0.51200
C83         C  0.62886296  0.85620369  0.25504997     0.70800
O84         O  0.66353396  0.89380173  0.26140754    -0.46100
C85         C  0.65279114  0.81584951  0.31040108     0.75500
O86         O  0.71195984  0.94543576  0.29399403    -0.57900
O87         O  0.61887475  0.82123334  0.31592367    -0.48000
O88         O  0.67569475  0.92285589  0.32266727    -0.54300
C89         C  0.57985000  0.91375226  0.29703788     0.85700
O90         O  0.59912493  0.83250592  0.26883415    -0.56200
O91         O  0.67834621  0.84345501  0.29641340    -0.59500
In92       In  0.64482308  0.75998975  0.06564084     1.36900
C93         C  0.71575721  0.75396602  0.04961285     0.78200
O94         O  0.60851102  0.68414507  0.07329519    -0.60300
O95         O  0.57955774  0.70497024  0.04889187    -0.51200
C96         C  0.63006474  0.77398506  0.10479855     0.70800
O97         O  0.66241783  0.76632648  0.09943214    -0.46100
C98         C  0.66821951  0.84160614  0.04787460     0.75500
O99         O  0.71327178  0.76124256  0.06865520    -0.57900
O100        O  0.62751556  0.80643268  0.04587825    -0.48000
O101        O  0.68113711  0.74860870  0.03901722    -0.54300
C102        C  0.57710998  0.67168861  0.05965533     0.85700
O103        O  0.60535997  0.77494068  0.08999718    -0.56200
O104        O  0.69496318  0.83531030  0.05978298    -0.59500
In105      In  0.05869047  0.75950550  0.95486993     1.36900
C106        C  0.99089500  0.76165919  0.97610923     0.78200
O107        O  0.00697447  0.68423592  0.94966425    -0.60300
O108        O  0.06803515  0.70001034  0.96692270    -0.51200
C109        C  0.07814267  0.76864784  0.91462641     0.70800
O110        O  0.04312660  0.76960492  0.92196691    -0.46100
C111        C  0.13039499  0.83950291  0.96875865     0.75500
O112        O  0.99466455  0.76667610  0.95665958    -0.57900
O113        O  0.12575739  0.80006280  0.97337052    -0.48000
O114        O  0.02244859  0.75621560  0.98457862    -0.54300
C115        C  0.02931300  0.66862437  0.95953565     0.85700
O116        O  0.10284326  0.76292629  0.92803145    -0.56200
O117        O  0.09880332  0.83733683  0.95693985    -0.59500
In118      In  0.21368300  0.90010866  0.73049353     1.36900
C119        C  0.22005390  0.97695483  0.71470892     0.78200
O120        O  0.28776712  0.94641843  0.74050195    -0.60300
O121        O  0.27476044  0.89385903  0.71841730    -0.51200
C122        C  0.19030363  0.86330534  0.76815164     0.70800
O123        O  0.19721688  0.90355230  0.76374306    -0.46100
C124        C  0.13847631  0.84269962  0.70839654     0.75500
O125        O  0.20734643  0.96439807  0.73321310    -0.57900
O126        O  0.17627788  0.84155238  0.70724745    -0.48000
O127        O  0.22942876  0.95004836  0.70454860    -0.54300
C128        C  0.30492458  0.92823085  0.72889262     0.85700
O129        O  0.19547269  0.84170243  0.75321873    -0.56200
O130        O  0.13921905  0.87168985  0.72127703    -0.59500
In131      In  0.74933171  0.66831765  0.61906308     1.36900
C132        C  0.74591113  0.73789599  0.63748485     0.78200
O133        O  0.67440295  0.63617165  0.60945403    -0.60300
O134        O  0.69076548  0.60092029  0.63265799    -0.51200
C135        C  0.76900465  0.66281413  0.57984362     0.70800
O136        O  0.76463959  0.69611409  0.58681102    -0.46100
C137        C  0.82919793  0.68127460  0.63550535     0.75500
O138        O  0.75302630  0.73772377  0.61831039    -0.57900
O139        O  0.79047185  0.64441404  0.63889630    -0.48000
O140        O  0.73985218  0.70201436  0.64714497    -0.54300
C141        C  0.65932492  0.60189425  0.62170546     0.85700
O142        O  0.76160108  0.63128939  0.59293498    -0.56200
O143        O  0.82641914  0.71038325  0.62380417    -0.59500
In144      In  0.90056635  0.66689208  0.39376127     1.36900
C145        C  0.97743349  0.73340085  0.37552199     0.78200
O146        O  0.93967573  0.63131437  0.40405703    -0.60300
O147        O  0.88693587  0.59710505  0.38131378    -0.51200
C148        C  0.87221165  0.66175522  0.43247980     0.70800
O149        O  0.91133721  0.69408984  0.42613473    -0.46100
C150        C  0.83848363  0.68461254  0.37539768     0.75500
O151        O  0.97044373  0.73270683  0.39477200    -0.57900
O152        O  0.83734913  0.64595057  0.37314546    -0.48000
O153        O  0.94521656  0.69928394  0.36580548    -0.54300
C154        C  0.91839419  0.59637730  0.39234247     0.85700
O155        O  0.84770534  0.63174406  0.41897201    -0.56200
O156        O  0.87071059  0.71303068  0.38718513    -0.59500
C157        C  0.79583439  0.64989242  0.47877976    -0.04900
C158        C  0.82696445  0.65788906  0.49539636     0.09300
C159        C  0.87252283  0.66597500  0.49135826    -0.02300
C160        C  0.88735060  0.66733267  0.47078725    -0.00500
C161        C  0.85628517  0.65947000  0.45412107    -0.04200
C162        C  0.81027423  0.65027798  0.45820614     0.02900
C163        C  0.81211257  0.65903314  0.51715409     0.09700
C164        C  0.90413125  0.67281811  0.50842888     0.35600
C165        C  0.77834137  0.64325318  0.44124021     0.39000
C166        C  0.77925619  0.61726251  0.52711192    -0.04500
C167        C  0.76370754  0.61865277  0.54727856     0.02600
C168        C  0.78301851  0.66157501  0.55811077    -0.04100
C169        C  0.81683434  0.70331271  0.54824707    -0.00300
C170        C  0.83051577  0.70209895  0.52770268    -0.02900
C171        C  0.76192287  0.57272427  0.51665485     0.36300
C172        C  0.83904718  0.74744487  0.55938214     0.40000
C173        C  0.72641387  0.57611645  0.55646440     0.39100
C174        C  0.86376850  0.74523473  0.51739004     0.36000
C175        C  0.74915344  0.64210267  0.48287865     0.36700
C176        C  0.93440692  0.67602399  0.46684794     0.39900
N177        N  0.69635403  0.54225536  0.56369833    -0.38100
N178        N  0.74830434  0.53721605  0.50832650    -0.39700
N179        N  0.85696455  0.78261554  0.56825998    -0.37500
N180        N  0.89039034  0.77957387  0.50916746    -0.39800
N181        N  0.92939190  0.67840672  0.52203736    -0.39600
N182        N  0.97200202  0.68316628  0.46369893    -0.37200
N183        N  0.75286807  0.63770608  0.42772500    -0.38300
N184        N  0.71189469  0.63572454  0.48621171    -0.40000
C185        C  0.03539704  0.73674532  0.68286413    -0.04900
C186        C  0.01046739  0.75733793  0.67427426     0.09300
C187        C  0.02935795  0.80623415  0.67571059    -0.02300
C188        C  0.07216447  0.83416262  0.68609553    -0.00500
C189        C  0.09622096  0.81340336  0.69552020    -0.04200
C190        C  0.07826095  0.76471975  0.69341263     0.02900
C191        C  0.96399613  0.72828682  0.66376993     0.09700
C192        C  0.00433691  0.82781391  0.66661452     0.35600
C193        C  0.10309573  0.74316934  0.70260721     0.39000
C194        C  0.92282731  0.70297300  0.67565894    -0.04500
C195        C  0.87828513  0.68416239  0.66616256     0.02600
C196        C  0.87477350  0.69138285  0.64476849    -0.04100
C197        C  0.91607177  0.71350313  0.63264249    -0.00300
C198        C  0.96042393  0.73128263  0.64209186    -0.02900
C199        C  0.92637647  0.69844980  0.69786194     0.36300
C200        C  0.91312132  0.71888089  0.61043940     0.40000
C201        C  0.83632062  0.66047861  0.67874226     0.39100
C202        C  0.00269760  0.75452054  0.62966124     0.36000
C203        C  0.01661389  0.68671544  0.68102848     0.36700
C204        C  0.09218610  0.88462499  0.68638580     0.39900
N205        N  0.80282175  0.64157551  0.68877550    -0.38100
N206        N  0.92934010  0.69476308  0.71556494    -0.39700
N207        N  0.91082258  0.72335817  0.59275068    -0.37500
N208        N  0.03650105  0.77312512  0.61980865    -0.39800
N209        N  0.98433464  0.84480973  0.65924369    -0.39600
N210        N  0.10808117  0.92483484  0.68635973    -0.37200
N211        N  0.12311341  0.72612095  0.70990662    -0.38300
N212        N  0.00152019  0.64673916  0.67964435    -0.40000
C213        C  0.12138271  0.78126427  0.81238165    -0.04900
C214        C  0.14454630  0.80951430  0.82971028     0.09300
C215        C  0.18517042  0.85353006  0.82684611    -0.02300
C216        C  0.20106850  0.87043774  0.80669470    -0.00500
C217        C  0.17665503  0.84317555  0.78926320    -0.04200
C218        C  0.13754446  0.79790995  0.79217459     0.02900
C219        C  0.12384311  0.79522706  0.85088249     0.09700
C220        C  0.20975168  0.88196747  0.84471433     0.35600
C221        C  0.11209264  0.76963487  0.77440388     0.39000
C222        C  0.13195758  0.76439605  0.86301646    -0.04500
C223        C  0.11451839  0.75347405  0.88343525     0.02600
C224        C  0.09035754  0.77482311  0.89215595    -0.04100
C225        C  0.08037931  0.80401147  0.87951892    -0.00300
C226        C  0.09710650  0.81408051  0.85898924    -0.02900
C227        C  0.15935425  0.74491103  0.85466023     0.36300
C228        C  0.05416373  0.82505275  0.88761870     0.40000
C229        C  0.12020861  0.71902701  0.89518004     0.39100
C230        C  0.08799028  0.84503858  0.84624952     0.36000
C231        C  0.07970589  0.73595665  0.81536957     0.36700
C232        C  0.24264823  0.91597019  0.80391658     0.39900
N233        N  0.12429078  0.69127472  0.90454056    -0.38100
N234        N  0.18138729  0.72947224  0.84808101    -0.39700
N235        N  0.03306483  0.84177922  0.89392358    -0.37500
N236        N  0.08108111  0.86985298  0.83601743    -0.39800
N237        N  0.22917535  0.90458708  0.85900680    -0.39600
N238        N  0.27576804  0.95228890  0.80165874    -0.37200
N239        N  0.09174613  0.74718380  0.76021174    -0.38300
N240        N  0.04641183  0.69985314  0.81779725    -0.40000
C241        C  0.89371140  0.78631411  0.99190546    -0.04900
C242        C  0.87603275  0.75838425  0.00982154     0.09300
C243        C  0.89670496  0.73257238  0.01708270    -0.02300
C244        C  0.93406901  0.73341696  0.00609163    -0.00500
C245        C  0.95209063  0.76146577  0.98803746    -0.04200
C246        C  0.93213667  0.78862208  0.98126026     0.02900
C247        C  0.83479311  0.75547872  0.02080152     0.09700
C248        C  0.87895633  0.70466903  0.03578724     0.35600
C249        C  0.95184005  0.82017738  0.96373550     0.39000
C250        C  0.78911057  0.72471952  0.01354578    -0.04500
C251        C  0.75018969  0.72393162  0.02298446     0.02600
C252        C  0.75661021  0.75311044  0.04022187    -0.04100
C253        C  0.80260446  0.78285172  0.04787849    -0.00300
C254        C  0.84147850  0.78418694  0.03807364    -0.02900
C255        C  0.78228576  0.69357775  0.99638515     0.36300
C256        C  0.81054381  0.81378123  0.06525990     0.40000
C257        C  0.70360653  0.69246009  0.01496599     0.39100
C258        C  0.88861841  0.81558772  0.04554848     0.36000
C259        C  0.87194693  0.81246499  0.98437799     0.36700
C260        C  0.95233535  0.70370564  0.01301272     0.39900
N261        N  0.66663178  0.66738416  0.00837954    -0.38100
N262        N  0.77693826  0.66859227  0.98278233    -0.39700
N263        N  0.81698880  0.83847594  0.07912587    -0.37500
N264        N  0.92626842  0.84054481  0.05148018    -0.39800
N265        N  0.86483905  0.68267722  0.05077847    -0.39600
N266        N  0.96666873  0.67981470  0.01852479    -0.37200
N267        N  0.96766488  0.84556317  0.94982892    -0.38300
N268        N  0.85423969  0.83297414  0.97837121    -0.40000
C269        C  0.79019601  0.75555364  0.34912122    -0.04900
C270        C  0.74231298  0.72189205  0.34694121     0.09300
C271        C  0.72594264  0.67548446  0.35351830    -0.02300
C272        C  0.75726528  0.66282888  0.36253802    -0.00500
C273        C  0.80532013  0.69669617  0.36500596    -0.04200
C274        C  0.82157996  0.74314963  0.35807201     0.02900
C275        C  0.70955354  0.73641492  0.33793175     0.09700
C276        C  0.67664485  0.64104179  0.35127494     0.35600
C277        C  0.87086483  0.77839281  0.35974544     0.39000
C278        C  0.70239297  0.73462508  0.31632261    -0.04500
C279        C  0.68035880  0.75771875  0.30734455     0.02600
C280        C  0.66451900  0.78197308  0.31999946    -0.04100
C281        C  0.66751080  0.77965495  0.34178957    -0.00300
C282        C  0.69066818  0.75754856  0.35069583    -0.02900
C283        C  0.71979426  0.71093694  0.30328150     0.36300
C284        C  0.65012254  0.80305756  0.35502219     0.40000
C285        C  0.67518493  0.75766418  0.28498071     0.39100
C286        C  0.69788412  0.75916354  0.37293528     0.36000
C287        C  0.80705187  0.80327864  0.34220653     0.36700
C288        C  0.73942539  0.61548794  0.37009990     0.39900
N289        N  0.67115823  0.75793177  0.26716354    -0.38100
N290        N  0.73357064  0.69190733  0.29288331    -0.39700
N291        N  0.63614575  0.82166301  0.36557903    -0.37500
N292        N  0.70403217  0.76070080  0.39065048    -0.39800
N293        N  0.63727315  0.61365680  0.34947024    -0.39600
N294        N  0.72508190  0.57771276  0.37618912    -0.37200
N295        N  0.91009569  0.80657126  0.36111682    -0.38300
N296        N  0.82022287  0.84126767  0.33669323    -0.40000
C297        C  0.66050821  0.83658695  0.20083738    -0.04900
C298        C  0.61616148  0.81345643  0.19111650     0.09300
C299        C  0.57573909  0.80408866  0.20239003    -0.02300
C300        C  0.57966882  0.81785823  0.22333097    -0.00500
C301        C  0.62414597  0.84094889  0.23311687    -0.04200
C302        C  0.66449929  0.84975569  0.22178875     0.02900
C303        C  0.61287951  0.79924679  0.16891820     0.09700
C304        C  0.53018306  0.78068211  0.19237079     0.35600
C305        C  0.71014532  0.87087222  0.23178392     0.39000
C306        C  0.61958416  0.76158821  0.16357178    -0.04500
C307        C  0.62499074  0.75315374  0.14263947     0.02600
C308        C  0.62202991  0.78138525  0.12679659    -0.04100
C309        C  0.61270227  0.81751148  0.13217232    -0.00300
C310        C  0.60845376  0.82655437  0.15317972    -0.02900
C311        C  0.62179503  0.73208983  0.17976396     0.36300
C312        C  0.61057348  0.84754478  0.11625863     0.40000
C313        C  0.63390040  0.71549627  0.13753788     0.39100
C314        C  0.60122693  0.86508777  0.15870185     0.36000
C315        C  0.70226316  0.84716790  0.18913218     0.36700
C316        C  0.53803033  0.80941351  0.23456315     0.39900
N317        N  0.64136183  0.68564340  0.13357857    -0.38100
N318        N  0.62347118  0.70864288  0.19273107    -0.39700
N319        N  0.60906945  0.87176066  0.10363609    -0.37500
N320        N  0.59531905  0.89568794  0.16318796    -0.39800
N321        N  0.49378044  0.76227207  0.18440759    -0.39600
N322        N  0.50495268  0.80276065  0.24360559    -0.37200
N323        N  0.74652195  0.88757621  0.23974790    -0.38300
N324        N  0.73544165  0.85552159  0.17974584    -0.40000
C325        C  0.77860004  0.86156423  0.65294022    -0.04900
C326        C  0.74449099  0.85262514  0.66815044     0.09300
C327        C  0.71043829  0.80621888  0.67307768    -0.02300
C328        C  0.71050480  0.76863754  0.66287752    -0.00500
C329        C  0.74518698  0.77737930  0.64790023    -0.04200
C330        C  0.77948628  0.82401826  0.64306222     0.02900
C331        C  0.74443344  0.89212758  0.67919766     0.09700
C332        C  0.67515996  0.79733472  0.68860921     0.35600
C333        C  0.81708474  0.83347535  0.62871208     0.39000
C334        C  0.71267920  0.90683692  0.67320930    -0.04500
C335        C  0.71159197  0.94329717  0.68398332     0.02600
C336        C  0.74307694  0.96597554  0.70062321    -0.04100
C337        C  0.77455036  0.95057615  0.70674054    -0.00300
C338        C  0.77491708  0.91354185  0.69610164    -0.02900
C339        C  0.68074147  0.88392036  0.65604021     0.36300
C340        C  0.80752146  0.97332277  0.72359644     0.40000
C341        C  0.67671996  0.95604322  0.67832586     0.39100
C342        C  0.80638274  0.89701997  0.70262198     0.36000
C343        C  0.81253376  0.90944392  0.64739081     0.36700
C344        C  0.67403249  0.72109673  0.66745877     0.39900
N345        N  0.64877613  0.96602611  0.67383912    -0.38100
N346        N  0.65521657  0.86541601  0.64239567    -0.39700
N347        N  0.83384972  0.99128303  0.73704562    -0.37500
N348        N  0.83133070  0.88368114  0.70781572    -0.39800
N349        N  0.64703748  0.79053608  0.70095659    -0.39600
N350        N  0.64481305  0.68325648  0.67113578    -0.37200
N351        N  0.84727539  0.84094977  0.61741020    -0.38300
N352        N  0.83943107  0.94762033  0.64287542    -0.40000
C353        C  0.53321905  0.01736608  0.70820546    -0.04900
C354        C  0.50677779  0.00109577  0.72659414     0.09300
C355        C  0.52952381  0.00337494  0.74546159    -0.02300
C356        C  0.57849433  0.02186700  0.74599856    -0.00500
C357        C  0.60525033  0.03801496  0.72755433    -0.04200
C358        C  0.58228420  0.03586466  0.70865150     0.02900
C359        C  0.45489259  0.98234979  0.72627858     0.09700
C360        C  0.50226801  0.98636753  0.76435218     0.35600
C361        C  0.60865872  0.05090904  0.68947888     0.39000
C362        C  0.42351792  0.93381015  0.72460865    -0.04500
C363        C  0.37457147  0.91604682  0.72503186     0.02600
C364        C  0.35657296  0.94673800  0.72762433    -0.04100
C365        C  0.38841901  0.99556036  0.72940953    -0.00300
C366        C  0.43723578  0.01315787  0.72849255    -0.02900
C367        C  0.44184696  0.90209981  0.72291461     0.36300
C368        C  0.37137449  0.02819272  0.73199961     0.40000
C369        C  0.34298478  0.86593738  0.72368296     0.39100
C370        C  0.46960860  0.06314134  0.73000720     0.36000
C371        C  0.50962182  0.01422594  0.68875516     0.36700
C372        C  0.60131480  0.02526771  0.76573054     0.39900
N373        N  0.31783586  0.82593315  0.72260497    -0.38100
N374        N  0.45663799  0.87691281  0.72170257    -0.39700
N375        N  0.35803798  0.05437811  0.73420775    -0.37500
N376        N  0.49555561  0.10297240  0.73115019    -0.39800
N377        N  0.48041648  0.97260805  0.77937730    -0.39600
N378        N  0.61946662  0.02798424  0.78147361    -0.37200
N379        N  0.62969140  0.06289088  0.67417599    -0.38300
N380        N  0.49069663  0.01154980  0.67324182    -0.40000
C381        C  0.94084049  0.43920233  0.98085106    -0.04900
C382        C  0.95332017  0.46686066  0.96271781     0.09300
C383        C  0.94793062  0.44549289  0.94323368    -0.02300
C384        C  0.93267638  0.39729118  0.94189399    -0.00500
C385        C  0.92200239  0.36968218  0.96009197    -0.04200
C386        C  0.92501514  0.39072957  0.97957118     0.02900
C387        C  0.97324512  0.51884585  0.96392031     0.09700
C388        C  0.95814476  0.47339796  0.92451079     0.35600
C389        C  0.91388509  0.36316195  0.99842176     0.39000
C390        C  0.02208919  0.54929482  0.96213547    -0.04500
C391        C  0.04074528  0.59826000  0.96104529     0.02600
C392        C  0.01063931  0.61727564  0.96209772    -0.04100
C393        C  0.96175000  0.58657149  0.96463389    -0.00300
C394        C  0.94322401  0.53765261  0.96535598    -0.02900
C395        C  0.05300232  0.52989328  0.96092239     0.36300
C396        C  0.93021407  0.60513406  0.96667714     0.40000
C397        C  0.09058628  0.62861603  0.95760228     0.39100
C398        C  0.89301248  0.50643379  0.96705601     0.36000
C399        C  0.94508451  0.46091687  0.00085183     0.36700
C400        C  0.92728748  0.37609158  0.92165015     0.39900
N401        N  0.13032922  0.65270827  0.95472475    -0.38100
N402        N  0.07743205  0.51414923  0.95995073    -0.39700
N403        N  0.90514014  0.62002171  0.96826314    -0.37500
N404        N  0.85295687  0.48148381  0.96837638    -0.39800
N405        N  0.96620539  0.49582333  0.90964032    -0.39600
N406        N  0.92303877  0.35921199  0.90550598    -0.37200
N407        N  0.90496851  0.34118344  0.01347330    -0.38300
N408        N  0.94835713  0.47826697  0.01679883    -0.40000
C409        C  0.67827754  0.95406216  0.02582359    -0.04900
C410        C  0.72179366  0.97348203  0.01542621     0.09300
C411        C  0.74660000  0.94880664  0.01530005    -0.02300
C412        C  0.72843528  0.90548697  0.02560295    -0.00500
C413        C  0.68528964  0.88630919  0.03631950    -0.04200
C414        C  0.65999361  0.91051712  0.03619779     0.02900
C415        C  0.74214154  0.01987916  0.00448633     0.09700
C416        C  0.79100768  0.96800014  0.00444411     0.35600
C417        C  0.61585599  0.89132851  0.04719319     0.39000
C418        C  0.76305420  0.06201810  0.01590900    -0.04500
C419        C  0.78784231  0.10562716  0.00561667     0.02600
C420        C  0.79390824  0.10735685  0.98385681    -0.04100
C421        C  0.77111003  0.06513642  0.97238800    -0.00300
C422        C  0.74472443  0.02178337  0.98264050    -0.02900
C423        C  0.76157198  0.06035074  0.03837347     0.36300
C424        C  0.77520518  0.06583669  0.94999446     0.40000
C425        C  0.80952278  0.14845882  0.01765464     0.39100
C426        C  0.72187279  0.97868985  0.97076174     0.36000
C427        C  0.65241677  0.97898532  0.02584117     0.36700
C428        C  0.75367431  0.87990677  0.02450605     0.39900
N429        N  0.82666544  0.18265155  0.02725049    -0.38100
N430        N  0.76056132  0.05892687  0.05629705    -0.39700
N431        N  0.77841398  0.06567697  0.93214499    -0.37500
N432        N  0.70393796  0.94424202  0.96135243    -0.39800
N433        N  0.82616557  0.98308369  0.99561468    -0.39600
N434        N  0.77386508  0.85963091  0.02349167    -0.37200
N435        N  0.58057461  0.87601998  0.05593875    -0.38300
N436        N  0.63194765  0.99905848  0.02591879    -0.40000
C437        C  0.81705688  0.12331625  0.82289858    -0.04900
C438        C  0.80440874  0.15460841  0.83154706     0.09300
C439        C  0.77908852  0.17030523  0.81956217    -0.02300
C440        C  0.76572768  0.15417445  0.79907397    -0.00500
C441        C  0.77997232  0.12418565  0.79001297    -0.04200
C442        C  0.80635776  0.10939872  0.80204037     0.02900
C443        C  0.81906249  0.17199489  0.85318504     0.09700
C444        C  0.76723714  0.20349904  0.82833425     0.35600
C445        C  0.82461245  0.08166017  0.79283458     0.39000
C446        C  0.86574978  0.20689503  0.85726668    -0.04500
C447        C  0.88055916  0.22155853  0.87778902     0.02600
C448        C  0.84851823  0.20156560  0.89441948    -0.04100
C449        C  0.80113884  0.16799014  0.89011012    -0.00300
C450        C  0.78666097  0.15303721  0.86958494    -0.02900
C451        C  0.89846792  0.22770059  0.84021206     0.36300
C452        C  0.76727148  0.14754160  0.90676210     0.40000
C453        C  0.92852219  0.25817949  0.88160065     0.39100
C454        C  0.73850740  0.11744972  0.86533030     0.36000
C455        C  0.84102310  0.10529638  0.83557808     0.36700
C456        C  0.73606376  0.16742912  0.78768838     0.39900
N457        N  0.96679459  0.28748182  0.88453025    -0.38100
N458        N  0.92427781  0.24408998  0.82650800    -0.39700
N459        N  0.74007393  0.13136470  0.91998537    -0.37500
N460        N  0.70006849  0.08914243  0.86194407    -0.39800
N461        N  0.75806444  0.23013515  0.83538275    -0.39600
N462        N  0.71213358  0.17778863  0.77868844    -0.37200
N463        N  0.83953060  0.05990635  0.78545036    -0.38300
N464        N  0.85980892  0.09067185  0.84574625    -0.40000
C465        C  0.53704845  0.51986469  0.64345816    -0.04900
C466        C  0.51001244  0.50476831  0.62512706     0.09300
C467        C  0.53233170  0.51962627  0.60574390    -0.02300
C468        C  0.58114071  0.55060456  0.60465006    -0.00500
C469        C  0.60842833  0.56632991  0.62299264    -0.04200
C470        C  0.58614626  0.55016171  0.64242399     0.02900
C471        C  0.45793021  0.47258043  0.62607427     0.09700
C472        C  0.50484614  0.50282216  0.58686557     0.35600
C473        C  0.61321729  0.56614131  0.66143604     0.39000
C474        C  0.42715353  0.49070913  0.62505933    -0.04500
C475        C  0.37804560  0.46018691  0.62498658     0.02600
C476        C  0.35933727  0.41114677  0.62534205    -0.04100
C477        C  0.39043612  0.39314474  0.62651764    -0.00300
C478        C  0.43940720  0.42377251  0.62698318    -0.02900
C479        C  0.44620845  0.54084604  0.62338777     0.36300
C480        C  0.37224735  0.34299346  0.62752405     0.40000
C481        C  0.34694746  0.47934904  0.62362170     0.39100
C482        C  0.47102024  0.40512077  0.62794486     0.36000
C483        C  0.51405145  0.50475609  0.66339943     0.36700
C484        C  0.60322215  0.56578445  0.58451193     0.39900
N485        N  0.32206357  0.49457617  0.62256712    -0.38100
N486        N  0.46148807  0.58084038  0.62186243    -0.39700
N487        N  0.35778910  0.30301611  0.62825485    -0.37500
N488        N  0.49638272  0.39042467  0.62869276    -0.39800
N489        N  0.48286640  0.48926964  0.57183003    -0.39600
N490        N  0.62072574  0.57808327  0.56844456    -0.37200
N491        N  0.63471371  0.57879812  0.67663846    -0.38300
N492        N  0.49560477  0.49275647  0.67929710    -0.40000
C493        C  0.02462737  0.22008307  0.66939955    -0.04900
C494        C  0.00389646  0.24858695  0.66985899     0.09300
C495        C  0.02767376  0.29358291  0.66076465    -0.02300
C496        C  0.07169052  0.30975422  0.65106816    -0.00500
C497        C  0.09201475  0.28081937  0.65027595    -0.04200
C498        C  0.06845274  0.23612212  0.65980363     0.02900
C499        C  0.95733405  0.23063758  0.68037933     0.09700
C500        C  0.00672860  0.32313166  0.66137711     0.35600
C501        C  0.09005978  0.20704221  0.66051392     0.39000
C502        C  0.95474150  0.22748431  0.70220188    -0.04500
C503        C  0.91095123  0.20163574  0.71210557     0.02600
C504        C  0.86911725  0.17922576  0.70029197    -0.04100
C505        C  0.87142060  0.18589569  0.67856101    -0.00300
C506        C  0.91547585  0.21126816  0.66863584    -0.02900
C507        C  0.99748730  0.24916715  0.71442858     0.36300
C508        C  0.82887409  0.16387499  0.66621264     0.40000
C509        C  0.90907151  0.19725762  0.73453233     0.39100
C510        C  0.91793105  0.21534973  0.64623429     0.36000
C511        C  0.00068816  0.17398603  0.67891548     0.36700
C512        C  0.09542944  0.35567520  0.64149651     0.39900
N513        N  0.90729627  0.19337194  0.75239081    -0.38100
N514        N  0.03156527  0.26630822  0.72419917    -0.39700
N515        N  0.79496598  0.14629036  0.65632509    -0.37500
N516        N  0.92001809  0.21873526  0.62836074    -0.39800
N517        N  0.98991543  0.34665180  0.66180714    -0.39600
N518        N  0.11446160  0.39239609  0.63390104    -0.37200
N519        N  0.10727242  0.18388239  0.66121182    -0.38300
N520        N  0.98156709  0.13738343  0.68661918    -0.40000
C521        C  0.19115512  0.07137789  0.69962628    -0.04900
C522        C  0.22685685  0.09732631  0.68513413     0.09300
C523        C  0.26148766  0.08529537  0.68108598    -0.02300
C524        C  0.26006225  0.04679714  0.69124468    -0.00500
C525        C  0.22346668  0.01966525  0.70534967    -0.04200
C526        C  0.18924018  0.03245870  0.70966923     0.02900
C527        C  0.22696261  0.13638847  0.67345693     0.09700
C528        C  0.29823040  0.11226872  0.66619074     0.35600
C529        C  0.15058928  0.00434623  0.72355952     0.39000
C530        C  0.25208216  0.18243993  0.68110492    -0.04500
C531        C  0.25185578  0.21927895  0.67009573     0.02600
C532        C  0.22640544  0.21011889  0.65126052    -0.04100
C533        C  0.20158215  0.16369189  0.64358073    -0.00300
C534        C  0.20189400  0.12705089  0.65469475    -0.02900
C535        C  0.27807335  0.19173115  0.70038082     0.36300
C536        C  0.17404728  0.15289192  0.62468718     0.40000
C537        C  0.27858150  0.26660403  0.67811060     0.39100
C538        C  0.17587930  0.07939612  0.64699800     0.36000
C539        C  0.15588956  0.08435502  0.70383793     0.36700
C540        C  0.29681841  0.03571499  0.68733333     0.39900
N541        N  0.29976343  0.30430095  0.68455752    -0.38100
N542        N  0.29878279  0.19904813  0.71575362    -0.39700
N543        N  0.15208097  0.14425902  0.60962399    -0.37500
N544        N  0.15509333  0.04134874  0.64093026    -0.39800
N545        N  0.32746019  0.13373745  0.65427681    -0.39600
N546        N  0.32610510  0.02686374  0.68420031    -0.37200
N547        N  0.11955073  0.98181906  0.73452371    -0.38300
N548        N  0.12786490  0.09486272  0.70715339    -0.40000
C549        C  0.95150282  0.41187248  0.39199097    -0.04900
C550        C  0.98131084  0.45996417  0.38820458     0.09300
C551        C  0.02922836  0.47713414  0.38404810    -0.02300
C552        C  0.04795217  0.44683426  0.38492782    -0.00500
C553        C  0.01842021  0.39872182  0.38942331    -0.04200
C554        C  0.96973562  0.38124438  0.39233797     0.02900
C555        C  0.96257158  0.49295218  0.38938944     0.09700
C556        C  0.05914685  0.52613817  0.37882696     0.35600
C557        C  0.93783935  0.33143074  0.39510412     0.39000
C558        C  0.96407348  0.51474432  0.40834374    -0.04500
C559        C  0.94800669  0.54710425  0.40948859     0.02600
C560        C  0.93067296  0.55846031  0.39152871    -0.04100
C561        C  0.92774467  0.53514963  0.37267677    -0.00300
C562        C  0.94350742  0.50244635  0.37168997    -0.02900
C563        C  0.98231828  0.50375950  0.42671811     0.36300
C564        C  0.91027636  0.54587560  0.35400911     0.40000
C565        C  0.94844626  0.56769863  0.42939005     0.39100
C566        C  0.94064570  0.47873598  0.35239221     0.36000
C567        C  0.90190306  0.39395223  0.39551156     0.36700
C568        C  0.09787648  0.46578876  0.38202168     0.39900
N569        N  0.94879737  0.58386093  0.44532754    -0.38100
N570        N  0.99684133  0.49490579  0.44134578    -0.39700
N571        N  0.89634355  0.55432977  0.33907760    -0.37500
N572        N  0.93833577  0.45959747  0.33705660    -0.39800
N573        N  0.08271355  0.56517270  0.37447090    -0.39600
N574        N  0.13777322  0.48113269  0.37975333    -0.37200
N575        N  0.91248070  0.29168618  0.39722452    -0.38300
N576        N  0.86232666  0.37966631  0.39827092    -0.40000
C577        C  0.19252513  0.36980127  0.52826049    -0.04900
C578        C  0.15610299  0.32947355  0.51876449     0.09300
C579        C  0.13234193  0.28723610  0.53001277    -0.02300
C580        C  0.14462129  0.28534860  0.55076372    -0.00500
C581        C  0.18194753  0.32538856  0.56021589    -0.04200
C582        C  0.20595580  0.36765330  0.54883502     0.02900
C583        C  0.14335113  0.33080020  0.49665592     0.09700
C584        C  0.09557938  0.24546530  0.52007296     0.35600
C585        C  0.24589079  0.40835575  0.55785858     0.39000
C586        C  0.17148798  0.32889871  0.48066837    -0.04500
C587        C  0.15760466  0.32640889  0.45981370     0.02600
C588        C  0.11513724  0.32507153  0.45493444    -0.04100
C589        C  0.08758780  0.32816246  0.47090939    -0.00300
C590        C  0.10185700  0.33134520  0.49172611    -0.02900
C591        C  0.21392133  0.32792655  0.48579588     0.36300
C592        C  0.04479302  0.32859184  0.46589674     0.40000
C593        C  0.18576225  0.32275553  0.44347471     0.39100
C594        C  0.07360535  0.33454368  0.50814633     0.36000
C595        C  0.21636441  0.41335443  0.51671385     0.36700
C596        C  0.11774716  0.24240907  0.56250484     0.39900
N597        N  0.20810861  0.31974916  0.43041444    -0.38100
N598        N  0.24772704  0.32717656  0.49001194    -0.39700
N599        N  0.01071437  0.32896600  0.46184221    -0.37500
N600        N  0.05109200  0.33700021  0.52127932    -0.39800
N601        N  0.06635956  0.21219635  0.51209544    -0.39600
N602        N  0.09619331  0.20822423  0.57187977    -0.37200
N603        N  0.27798614  0.44077280  0.56495490    -0.38300
N604        N  0.23526181  0.44798334  0.50741741    -0.40000
C605        C  0.78311088  0.05181138  0.35081334    -0.04900
C606        C  0.82923230  0.06711200  0.34413068     0.09300
C607        C  0.83730948  0.04380965  0.32776950    -0.02300
C608        C  0.79923831  0.00542793  0.31797563    -0.00500
C609        C  0.75273286  0.99111522  0.32410495    -0.04200
C610        C  0.74488819  0.01451421  0.34061922     0.02900
C611        C  0.86930875  0.10872960  0.35404563     0.09700
C612        C  0.88488131  0.05957230  0.32097134     0.35600
C613        C  0.69752578  0.00173366  0.34664257     0.39000
C614        C  0.89585720  0.10278455  0.36967795    -0.04500
C615        C  0.93390911  0.14217877  0.37894393     0.02600
C616        C  0.94616703  0.18788797  0.37227271    -0.04100
C617        C  0.91842410  0.19358100  0.35698076    -0.00300
C618        C  0.88011958  0.15409835  0.34796001    -0.02900
C619        C  0.88398327  0.05594013  0.37610538     0.36300
C620        C  0.92820761  0.24000618  0.35088241     0.40000
C621        C  0.96083755  0.13523310  0.39498995     0.39100
C622        C  0.85157964  0.16003655  0.33238948     0.36000
C623        C  0.77512034  0.07467832  0.36821437     0.36700
C624        C  0.80820074  0.97987938  0.30206896     0.39900
N625        N  0.98206905  0.12959548  0.40787538    -0.38100
N626        N  0.87446351  0.01850643  0.38113661    -0.39700
N627        N  0.93599633  0.27702780  0.34603397    -0.37500
N628        N  0.82862653  0.16468681  0.32005513    -0.39800
N629        N  0.92280945  0.07214909  0.31553085    -0.39600
N630        N  0.81531869  0.95933830  0.28945928    -0.37200
N631        N  0.65974501  0.99165306  0.35136253    -0.38300
N632        N  0.76884905  0.09282822  0.38215784    -0.40000
C633        C  0.44707667  0.01321573  0.31244092    -0.04900
C634        C  0.46023884  0.99681967  0.29500248     0.09300
C635        C  0.44725523  0.00352879  0.27499300    -0.02300
C636        C  0.42061097  0.02590390  0.27240987    -0.00500
C637        C  0.40597875  0.04108370  0.28990314    -0.04200
C638        C  0.41985449  0.03509311  0.30995289     0.02900
C639        C  0.49034318  0.97496880  0.29748154     0.09700
C640        C  0.46169011  0.98755502  0.25702922     0.35600
C641        C  0.40465116  0.04959442  0.32813952     0.39000
C642        C  0.47014759  0.92587507  0.29841377    -0.04500
C643        C  0.49905859  0.90546035  0.29881530     0.02600
C644        C  0.54850771  0.93424460  0.29862672    -0.04100
C645        C  0.56840492  0.98363301  0.29888134    -0.00300
C646        C  0.53942665  0.00371926  0.29799612    -0.02900
C647        C  0.41952211  0.89647300  0.29865953     0.36300
C648        C  0.61880870  0.01425396  0.30045522     0.40000
C649        C  0.47767603  0.85491302  0.29849968     0.39100
C650        C  0.56007600  0.05422644  0.29723968     0.36000
C651        C  0.46153359  0.00732566  0.33295768     0.36700
C652        C  0.40950174  0.03449969  0.25164083     0.39900
N653        N  0.46048446  0.81455526  0.29821423    -0.38100
N654        N  0.37911256  0.87311953  0.29893601    -0.39700
N655        N  0.65895569  0.03882228  0.30174757    -0.37500
N656        N  0.57629197  0.09445479  0.29658398    -0.39800
N657        N  0.47322812  0.97470605  0.24274839    -0.39600
N658        N  0.40079329  0.04153526  0.23508686    -0.37200
N659        N  0.39239588  0.06096726  0.34267404    -0.38300
N660        N  0.47327990  0.00268753  0.34929306    -0.40000
C661        C  0.16878767  0.21753567  0.34406722    -0.04900
C662        C  0.21691665  0.25014321  0.34158668     0.09300
C663        C  0.23503730  0.29646230  0.34867723    -0.02300
C664        C  0.20548084  0.30965540  0.35893582    -0.00500
C665        C  0.15758224  0.27646269  0.36212275    -0.04200
C666        C  0.13918299  0.23065728  0.35410533     0.02900
C667        C  0.24768658  0.23477868  0.33126481     0.09700
C668        C  0.28410906  0.33035648  0.34542312     0.35600
C669        C  0.08927343  0.19734649  0.35541092     0.39000
C670        C  0.25051482  0.23506491  0.30946675    -0.04500
C671        C  0.26981742  0.21054745  0.29949470     0.02600
C672        C  0.28631111  0.18546932  0.31130564    -0.04100
C673        C  0.28795046  0.18940282  0.33315081    -0.00300
C674        C  0.26868500  0.21406111  0.34308262    -0.02900
C675        C  0.23217456  0.25947740  0.29735796     0.36300
C676        C  0.30655649  0.16557135  0.34550949     0.40000
C677        C  0.27275481  0.21117154  0.27705517     0.39100
C678        C  0.26879072  0.21667916  0.36550986     0.36000
C679        C  0.14971913  0.17026928  0.33617976     0.36700
C680        C  0.22469600  0.35696747  0.36667568     0.39900
N681        N  0.27540765  0.21193490  0.25916143    -0.38100
N682        N  0.21767561  0.27921063  0.28778576    -0.39700
N683        N  0.32144204  0.14655762  0.35535092    -0.37500
N684        N  0.26911579  0.21901511  0.38340643    -0.39800
N685        N  0.32327914  0.35737395  0.34273627    -0.39600
N686        N  0.23992608  0.39475547  0.37282509    -0.37200
N687        N  0.04944735  0.17095290  0.35631676    -0.38300
N688        N  0.13472006  0.13266465  0.32983705    -0.40000
C689        C  0.07198630  0.80044880  0.33498803    -0.04900
C690        C  0.09266410  0.84645401  0.34268206     0.09300
C691        C  0.07826664  0.85503021  0.36189975    -0.02300
C692        C  0.04139121  0.81810419  0.37292374    -0.00500
C693        C  0.01923850  0.77185985  0.36495115    -0.04200
C694        C  0.03592179  0.76311644  0.34620495     0.02900
C695        C  0.12975357  0.88632461  0.33056472     0.09700
C696        C  0.10139605  0.90221312  0.37021446     0.35600
C697        C  0.01703248  0.71566798  0.33860082     0.39000
C698        C  0.11796876  0.91424899  0.31815374    -0.04500
C699        C  0.15338825  0.95386463  0.30781900     0.02600
C700        C  0.20082840  0.96580918  0.30997368    -0.04100
C701        C  0.21231211  0.93688550  0.32194410    -0.00300
C702        C  0.17683932  0.89734441  0.33223829    -0.02900
C703        C  0.06938966  0.90266745  0.31645054     0.36300
C704        C  0.26051776  0.94708744  0.32335122     0.40000
C705        C  0.14108819  0.98341947  0.29578452     0.39100
C706        C  0.18872838  0.86827786  0.34487354     0.36000
C707        C  0.08769996  0.79172545  0.31539116     0.36700
C708        C  0.02546331  0.82857078  0.39204920     0.39900
N709        N  0.13125336  0.00701713  0.28621740    -0.38100
N710        N  0.03061701  0.89340864  0.31519235    -0.39700
N711        N  0.29889066  0.95501413  0.32445822    -0.37500
N712        N  0.19803418  0.84498491  0.35496515    -0.39800
N713        N  0.12006309  0.93987030  0.37679856    -0.39600
N714        N  0.01292469  0.83717272  0.40728559    -0.37200
N715        N  0.00216834  0.67783079  0.33256455    -0.38300
N716        N  0.10029191  0.78488576  0.29975278    -0.40000
C717        C  0.50266183  0.55180446  0.03465158    -0.04900
C718        C  0.48413173  0.52315050  0.05233958     0.09300
C719        C  0.49261621  0.54377526  0.07214851    -0.02300
C720        C  0.52104334  0.59262861  0.07436713    -0.00500
C721        C  0.54122898  0.62145771  0.05675021    -0.04200
C722        C  0.53068794  0.60091378  0.03679635     0.02900
C723        C  0.45599557  0.47098821  0.05034015     0.09700
C724        C  0.47297161  0.51442205  0.09034646     0.35600
C725        C  0.55014983  0.62980563  0.01849638     0.39000
C726        C  0.47868129  0.44431720  0.04932047    -0.04500
C727        C  0.45220603  0.39488017  0.04971456     0.02600
C728        C  0.40283670  0.37192623  0.05134270    -0.04100
C729        C  0.38014685  0.39887741  0.05125995    -0.00300
C730        C  0.40667060  0.44813181  0.05078885    -0.02900
C731        C  0.52944673  0.46800083  0.04847697     0.36300
C732        C  0.32929248  0.37608124  0.05148305     0.40000
C733        C  0.47601540  0.36794325  0.04943890     0.39100
C734        C  0.38322488  0.47546210  0.05112529     0.36000
C735        C  0.49398635  0.53037365  0.01432342     0.36700
C736        C  0.52920035  0.61322331  0.09488563     0.39900
N737        N  0.49510378  0.34651598  0.04920111    -0.38100
N738        N  0.56997158  0.48715773  0.04778501    -0.39700
N739        N  0.28878224  0.35796736  0.05172579    -0.37500
N740        N  0.36440208  0.49713839  0.05140771    -0.39800
N741        N  0.45732229  0.49098150  0.10484770    -0.39600
N742        N  0.53569741  0.62964539  0.11124182    -0.37200
N743        N  0.56534164  0.65263981  0.00379574    -0.38300
N744        N  0.48718782  0.51293695  0.99818072    -0.40000
C745        C  0.21285442  0.93374795  0.00661877    -0.04900
C746        C  0.22663009  0.97455792  0.99476889     0.09300
C747        C  0.21541084  0.97060959  0.97350528    -0.02300
C748        C  0.18614474  0.92618880  0.96464798    -0.00500
C749        C  0.16846927  0.88515858  0.97698550    -0.04200
C750        C  0.18404860  0.88912419  0.99777429     0.02900
C751        C  0.24578504  0.02093982  0.00536618     0.09700
C752        C  0.23274027  0.01261736  0.96097024     0.35600
C753        C  0.16791194  0.84777038  0.01062651     0.39000
C754        C  0.29355927  0.04770581  0.01093179    -0.04500
C755        C  0.31018802  0.09044324  0.02172532     0.02600
C756        C  0.27896547  0.10648955  0.02701986    -0.04100
C757        C  0.23124992  0.07986063  0.02101736    -0.00300
C758        C  0.21484075  0.03735338  0.01032922    -0.02900
C759        C  0.32536851  0.03097044  0.00565877     0.36300
C760        C  0.19888283  0.09663965  0.02527602     0.40000
C761        C  0.35897265  0.11692613  0.02798862     0.39100
C762        C  0.16571350  0.01013018  0.00449594     0.36000
C763        C  0.22649580  0.93797660  0.02825570     0.36700
C764        C  0.17364535  0.92302298  0.94287923     0.39900
N765        N  0.39790664  0.13806968  0.03301233    -0.38100
N766        N  0.35068677  0.01749536  0.00145971    -0.39700
N767        N  0.17303342  0.10993135  0.02864930    -0.37500
N768        N  0.12661652  0.98845330  0.99978109    -0.39800
N769        N  0.24678797  0.04620234  0.95101046    -0.39600
N770        N  0.16353396  0.92056225  0.92554097    -0.37200
N771        N  0.15512371  0.81487951  0.02095863    -0.38300
N772        N  0.23770742  0.94171779  0.04548135    -0.40000
C773        C  0.33833169  0.14335487  0.14175845    -0.04900
C774        C  0.34271973  0.17323138  0.15827321     0.09300
C775        C  0.34776759  0.21752796  0.15411401    -0.02300
C776        C  0.34554935  0.23075999  0.13355775    -0.00500
C777        C  0.33959745  0.20024194  0.11708639    -0.04200
C778        C  0.33745220  0.15715104  0.12113909     0.02900
C779        C  0.33778101  0.15655359  0.18012855     0.09700
C780        C  0.35412778  0.24891706  0.17108319     0.35600
C781        C  0.33187737  0.12603877  0.10414886     0.39000
C782        C  0.37755556  0.16554183  0.19187745    -0.04500
C783        C  0.37258172  0.15121273  0.21280213     0.02600
C784        C  0.32757541  0.12780323  0.22207054    -0.04100
C785        C  0.28778383  0.11892331  0.21012235    -0.00300
C786        C  0.29294447  0.13303931  0.18923021    -0.02900
C787        C  0.42354719  0.18957149  0.18233660     0.36300
C788        C  0.24151246  0.09694276  0.21944083     0.40000
C789        C  0.41374897  0.15964078  0.22452554     0.39100
C790        C  0.25206749  0.12382853  0.17704240     0.36000
C791        C  0.33286121  0.09771793  0.14606896     0.36700
C792        C  0.34923885  0.27570856  0.12931386     0.39900
N793        N  0.44666011  0.16642423  0.23384609    -0.38100
N794        N  0.46015188  0.20873632  0.17464560    -0.39700
N795        N  0.20464209  0.07949199  0.22687983    -0.37500
N796        N  0.21955455  0.11650407  0.16727306    -0.39800
N797        N  0.35938896  0.27392121  0.18466747    -0.39600
N798        N  0.35214323  0.31151098  0.12585500    -0.37200
N799        N  0.32747545  0.10144252  0.09051088    -0.38300
N800        N  0.32824910  0.06119859  0.14950579    -0.40000
C801        C  0.07991123  0.27905167  0.00519728    -0.04900
C802        C  0.09194098  0.24464517  0.00064466     0.09300
C803        C  0.06567906  0.20963439  0.98592946    -0.02300
C804        C  0.02635516  0.20793406  0.97629319    -0.00500
C805        C  0.01321528  0.24161781  0.98124698    -0.04200
C806        C  0.04079982  0.27772330  0.99549642     0.02900
C807        C  0.13153323  0.24423421  0.01181017     0.09700
C808        C  0.07904473  0.17502907  0.98091676     0.35600
C809        C  0.02988579  0.31436872  0.99981694     0.39000
C810        C  0.12234546  0.21526453  0.02931486    -0.04500
C811        C  0.15913923  0.21262803  0.03926640     0.02600
C812        C  0.20555546  0.23892575  0.03164418    -0.04100
C813        C  0.21477385  0.26927445  0.01446359    -0.00300
C814        C  0.17783347  0.27183623  0.00463712    -0.02900
C815        C  0.07473657  0.18795137  0.03699429     0.36300
C816        C  0.26238663  0.29909518  0.00714470     0.40000
C817        C  0.14858375  0.18174909  0.05698051     0.39100
C818        C  0.18740148  0.30302495  0.98712572     0.36000
C819        C  0.10784922  0.31568193  0.01997192     0.36700
C820        C  0.99850803  0.17025755  0.96193981     0.39900
N821        N  0.14005751  0.15717871  0.07113620    -0.38100
N822        N  0.03673191  0.16624969  0.04309182    -0.39700
N823        N  0.30036922  0.32296072  0.00136094    -0.37500
N824        N  0.19514324  0.32811615  0.97323702    -0.39800
N825        N  0.08993342  0.14758464  0.97698676    -0.39600
N826        N  0.97637420  0.14011720  0.95051154    -0.37200
N827        N  0.02131242  0.34370228  0.00322644    -0.38300
N828        N  0.13037668  0.34486163  0.03173415    -0.40000
loop_ 
_geom_bond_atom_site_label_1 
_geom_bond_atom_site_label_2 
_geom_bond_distance 
_geom_bond_site_symmetry_2 
_ccdc_geom_bond_type 
In1           O3   2.206       .  S
In1           O4   2.269       .  S
In1          O12   2.240       .  S
In1           O6   2.223       .  S
In1           O8   2.239       .  S
In1           O9   2.261       .  S
In1          O10   2.220       .  S
In1          O13   2.211       .  S
C2            O8   1.265       .  A
C2           O10   1.262       .  A
C2          C812   1.489       .  S
O3           C11   1.258       .  A
O4           C11   1.268       .  A
C5           O12   1.263       .  A
C5            O6   1.262       .  A
C5          C777   1.474       .  S
C7            O9   1.268       .  A
C7           O13   1.261       .  A
C7          C756   1.489       .  S
C11         C728   1.488       .  S
In14         O16   2.224       .  S
In14         O17   2.260       .  S
In14         O25   2.246       .  S
In14         O19   2.225       .  S
In14         O21   2.249       .  S
In14         O22   2.265       .  S
In14         O23   2.230       .  S
In14         O26   2.234       .  S
C15          O21   1.262       .  A
C15          O23   1.260       .  A
C15         C700   1.482   1_545  S
O16          C24   1.259       .  A
O17          C24   1.265       .  A
C18          O25   1.263       .  A
C18          O19   1.262       .  A
C18         C784   1.488       .  S
C20          O22   1.264       .  A
C20          O26   1.260       .  A
C20         C672   1.489       .  S
C24         C637   1.489       .  S
In27         O29   2.223       .  S
In27         O30   2.270       .  S
In27         O38   2.247       .  S
In27         O32   2.225       .  S
In27         O34   2.239       .  S
In27         O35   2.268       .  S
In27         O36   2.230       .  S
In27         O39   2.226       .  S
C28          O34   1.262   1_655  A
C28          O36   1.261   1_655  A
C28         C616   1.487       .  S
O29          C37   1.258       .  A
O30          C37   1.265       .  A
C31          O38   1.262       .  A
C31          O32   1.259       .  A
C31         C588   1.477       .  S
C33          O35   1.266       .  A
C33          O39   1.260       .  A
C33         C665   1.491       .  S
C37         C553   1.493       .  S
In40         O42   2.223       .  S
In40         O43   2.268       .  S
In40         O51   2.242       .  S
In40         O45   2.226       .  S
In40         O47   2.229       .  S
In40         O48   2.273       .  S
In40         O49   2.222       .  S
In40         O52   2.221       .  S
C41          O47   1.265       .  A
C41          O49   1.262       .  A
C41         C532   1.487       .  S
O42          C50   1.259       .  A
O43          C50   1.268       .  A
C44          O51   1.263       .  A
C44          O45   1.262       .  A
C44         C581   1.484       .  S
C46          O48   1.269       .  A
C46          O52   1.260       .  A
C46         C497   1.492       .  S
C50         C476   1.493       .  S
In53         O55   2.235       .  S
In53         O56   2.267       .  S
In53         O64   2.243       .  S
In53         O58   2.239       .  S
In53         O60   2.247       .  S
In53         O61   2.269       .  S
In53         O62   2.247       .  S
In53         O65   2.241       .  S
C54          O60   1.260       .  A
C54          O62   1.260       .  A
C54         C805   1.489   1_655  S
O55          C63   1.260       .  A
O56          C63   1.264       .  A
C57          O64   1.262       .  A
C57          O58   1.262       .  A
C57         C448   1.489       .  S
C59          O61   1.264       .  A
C59          O65   1.259       .  A
C59         C420   1.494       .  S
C63         C385   1.493       .  S
In66         O68   2.227       .  S
In66         O69   2.264       .  S
In66         O77   2.243       .  S
In66         O71   2.228       .  S
In66         O73   2.237       .  S
In66         O74   2.271       .  S
In66         O75   2.225       .  S
In66         O78   2.218       .  S
C67          O73   1.262       .  A
C67          O75   1.261       .  A
C67         C336   1.485   1_545  S
O68          C76   1.258       .  A
O69          C76   1.265       .  A
C70          O77   1.263       .  A
C70          O71   1.262       .  A
C70         C441   1.491       .  S
C72          O74   1.266       .  A
C72          O78   1.260       .  A
C72         C504   1.490       .  S
C76         C357   1.491       .  S
In79         O81   2.215       .  S
In79         O82   2.271       .  S
In79         O90   2.236       .  S
In79         O84   2.219       .  S
In79         O86   2.233       .  S
In79         O87   2.263       .  S
In79         O88   2.226       .  S
In79         O91   2.210       .  S
C80          O86   1.263       .  A
C80          O88   1.262       .  A
C80         C609   1.484       .  S
O81          C89   1.259       .  A
O82          C89   1.267       .  A
C83          O90   1.264       .  A
C83          O84   1.262       .  A
C83         C301   1.485       .  S
C85          O87   1.268       .  A
C85          O91   1.259       .  A
C85         C280   1.486       .  S
C89         C644   1.494       .  S
In92         O94   2.222       .  S
In92         O95   2.275       .  S
In92        O103   2.250       .  S
In92         O97   2.237       .  S
In92         O99   2.241       .  S
In92        O100   2.270       .  S
In92        O101   2.234       .  S
In92        O104   2.222       .  S
C93          O99   1.263       .  A
C93         O101   1.262       .  A
C93         C252   1.491       .  S
O94         C102   1.258       .  A
O95         C102   1.265       .  A
C96         O103   1.263       .  A
C96          O97   1.261       .  A
C96         C308   1.488       .  S
C98         O100   1.266       .  A
C98         O104   1.259       .  A
C98         C413   1.488       .  S
C102        C721   1.490       .  S
In105       O107   2.225       .  S
In105       O108   2.268       .  S
In105       O116   2.231       .  S
In105       O110   2.245       .  S
In105       O112   2.239   1_455  S
In105       O113   2.265       .  S
In105       O114   2.235       .  S
In105       O117   2.228       .  S
C106        O112   1.264       .  A
C106        O114   1.262   1_655  A
C106        C245   1.491       .  S
O107        C115   1.259       .  A
O108        C115   1.266       .  A
C109        O116   1.262       .  A
C109        O110   1.263       .  A
C109        C224   1.492       .  S
C111        O113   1.266       .  A
C111        O117   1.261       .  A
C111        C749   1.495       .  S
C115        C392   1.494       .  S
In118       O120   2.229       .  S
In118       O121   2.263       .  S
In118       O129   2.248       .  S
In118       O123   2.232       .  S
In118       O125   2.240       .  S
In118       O126   2.264       .  S
In118       O127   2.218       .  S
In118       O130   2.222       .  S
C119        O125   1.265       .  A
C119        O127   1.262       .  A
C119        C525   1.483   1_565  S
O120        C128   1.259       .  A
O121        C128   1.266       .  A
C122        O129   1.262       .  A
C122        O123   1.261       .  A
C122        C217   1.483       .  S
C124        O126   1.267       .  A
C124        O130   1.260       .  A
C124        C189   1.487       .  S
C128        C364   1.495       .  S
In131       O133   2.230       .  S
In131       O134   2.268       .  S
In131       O142   2.238       .  S
In131       O136   2.227       .  S
In131       O138   2.232       .  S
In131       O139   2.268       .  S
In131       O140   2.232       .  S
In131       O143   2.222       .  S
C132        O138   1.261       .  A
C132        O140   1.261       .  A
C132        C329   1.478       .  S
O133        C141   1.259       .  A
O134        C141   1.265       .  A
C135        O142   1.264       .  A
C135        O136   1.261       .  A
C135        C168   1.485       .  S
C137        O139   1.266       .  A
C137        O143   1.258       .  A
C137        C196   1.488       .  S
C141        C469   1.492       .  S
In144       O146   2.231       .  S
In144       O147   2.263       .  S
In144       O155   2.238       .  S
In144       O149   2.232       .  S
In144       O151   2.240       .  S
In144       O152   2.264       .  S
In144       O153   2.234       .  S
In144       O156   2.225       .  S
C145        O151   1.262       .  A
C145        O153   1.261       .  A
C145        C693   1.491   1_655  S
O146        C154   1.259       .  A
O147        C154   1.265       .  A
C148        O155   1.262       .  A
C148        O149   1.262       .  A
C148        C161   1.482       .  S
C150        O152   1.266       .  A
C150        O156   1.260       .  A
C150        C273   1.493       .  S
C154        C560   1.496       .  S
C157        C158   1.412       .  A
C157        C162   1.410       .  A
C157        C175   1.451       .  S
C158        C163   1.495       .  S
C158        C159   1.411       .  A
C159        C160   1.409       .  A
C159        C164   1.451       .  S
C160        C161   1.414       .  A
C160        C176   1.451       .  S
C161        C162   1.414       .  A
C162        C165   1.452       .  S
C163        C166   1.411       .  A
C163        C170   1.411       .  A
C164        N181   1.157       .  T
C165        N183   1.157       .  T
C166        C167   1.409       .  A
C166        C171   1.451       .  S
C167        C168   1.414       .  A
C167        C173   1.451       .  S
C168        C169   1.417       .  A
C169        C170   1.409       .  A
C169        C172   1.452       .  S
C170        C174   1.452       .  S
C171        N178   1.157       .  T
C172        N179   1.157       .  T
C173        N177   1.157       .  T
C174        N180   1.157       .  T
C175        N184   1.157       .  T
C176        N182   1.157       .  T
C185        C186   1.412       .  A
C185        C190   1.415       .  A
C185        C203   1.449       .  S
C186        C191   1.500   1_455  S
C186        C187   1.412       .  A
C187        C188   1.408       .  A
C187        C192   1.453       .  S
C188        C189   1.415       .  A
C188        C204   1.452       .  S
C189        C190   1.414       .  A
C190        C193   1.450       .  S
C191        C194   1.412       .  A
C191        C198   1.411       .  A
C192        N209   1.157   1_455  T
C193        N211   1.157       .  T
C194        C195   1.413       .  A
C194        C199   1.450       .  S
C195        C196   1.414       .  A
C195        C201   1.450       .  S
C196        C197   1.416       .  A
C197        C198   1.410       .  A
C197        C200   1.452       .  S
C198        C202   1.451   1_655  S
C199        N206   1.157       .  T
C200        N207   1.157       .  T
C201        N205   1.157       .  T
C202        N208   1.157       .  T
C203        N212   1.157       .  T
C204        N210   1.157       .  T
C213        C214   1.411       .  A
C213        C218   1.412       .  A
C213        C231   1.450       .  S
C214        C219   1.495       .  S
C214        C215   1.411       .  A
C215        C216   1.409       .  A
C215        C220   1.451       .  S
C216        C217   1.413       .  A
C216        C232   1.451       .  S
C217        C218   1.414       .  A
C218        C221   1.451       .  S
C219        C222   1.408       .  A
C219        C226   1.410       .  A
C220        N237   1.157       .  T
C221        N239   1.157       .  T
C222        C223   1.411       .  A
C222        C227   1.450       .  S
C223        C224   1.418       .  A
C223        C229   1.452       .  S
C224        C225   1.417       .  A
C225        C226   1.410       .  A
C225        C228   1.451       .  S
C226        C230   1.452       .  S
C227        N234   1.157       .  T
C228        N235   1.157       .  T
C229        N233   1.158       .  T
C230        N236   1.157       .  T
C231        N240   1.157       .  T
C232        N238   1.157       .  T
C241        C242   1.409   1_556  A
C241        C246   1.410       .  A
C241        C259   1.451       .  S
C242        C247   1.494       .  S
C242        C243   1.408       .  A
C243        C244   1.411       .  A
C243        C248   1.451       .  S
C244        C245   1.419   1_554  A
C244        C260   1.451       .  S
C245        C246   1.418       .  A
C246        C249   1.451       .  S
C247        C250   1.408       .  A
C247        C254   1.409       .  A
C248        N265   1.157       .  T
C249        N267   1.158       .  T
C250        C251   1.409       .  A
C250        C255   1.451   1_554  S
C251        C252   1.418       .  A
C251        C257   1.450       .  S
C252        C253   1.419       .  A
C253        C254   1.411       .  A
C253        C256   1.451       .  S
C254        C258   1.451       .  S
C255        N262   1.157       .  T
C256        N263   1.157       .  T
C257        N261   1.157       .  T
C258        N264   1.157       .  T
C259        N268   1.157       .  T
C260        N266   1.157       .  T
C269        C270   1.410       .  A
C269        C274   1.409       .  A
C269        C287   1.452       .  S
C270        C275   1.497       .  S
C270        C271   1.409       .  A
C271        C272   1.415       .  A
C271        C276   1.450       .  S
C272        C273   1.417       .  A
C272        C288   1.450       .  S
C273        C274   1.418       .  A
C274        C277   1.453       .  S
C275        C278   1.410       .  A
C275        C282   1.411       .  A
C276        N293   1.157       .  T
C277        N295   1.157       .  T
C278        C279   1.410       .  A
C278        C283   1.450       .  S
C279        C280   1.416       .  A
C279        C285   1.452       .  S
C280        C281   1.414       .  A
C281        C282   1.412       .  A
C281        C284   1.450       .  S
C282        C286   1.450       .  S
C283        N290   1.157       .  T
C284        N291   1.158       .  T
C285        N289   1.157       .  T
C286        N292   1.157       .  T
C287        N296   1.157       .  T
C288        N294   1.158       .  T
C297        C298   1.411       .  A
C297        C302   1.407       .  A
C297        C315   1.452       .  S
C298        C303   1.495       .  S
C298        C299   1.411       .  A
C299        C300   1.412       .  A
C299        C304   1.450       .  S
C300        C301   1.416       .  A
C300        C316   1.451       .  S
C301        C302   1.416       .  A
C302        C305   1.452       .  S
C303        C306   1.410       .  A
C303        C310   1.410       .  A
C304        N321   1.157       .  T
C305        N323   1.158       .  T
C306        C307   1.410       .  A
C306        C311   1.452       .  S
C307        C308   1.416       .  A
C307        C313   1.451       .  S
C308        C309   1.416       .  A
C309        C310   1.411       .  A
C309        C312   1.450       .  S
C310        C314   1.451       .  S
C311        N318   1.157       .  T
C312        N319   1.157       .  T
C313        N317   1.157       .  T
C314        N320   1.157       .  T
C315        N324   1.157       .  T
C316        N322   1.157       .  T
C325        C326   1.409       .  A
C325        C330   1.408       .  A
C325        C343   1.451       .  S
C326        C331   1.488       .  S
C326        C327   1.409       .  A
C327        C328   1.406       .  A
C327        C332   1.451       .  S
C328        C329   1.414       .  A
C328        C344   1.451       .  S
C329        C330   1.415       .  A
C330        C333   1.452       .  S
C331        C334   1.408       .  A
C331        C338   1.409       .  A
C332        N349   1.157       .  T
C333        N351   1.158       .  T
C334        C335   1.407       .  A
C334        C339   1.451       .  S
C335        C336   1.417       .  A
C335        C341   1.452       .  S
C336        C337   1.418       .  A
C337        C338   1.409       .  A
C337        C340   1.451       .  S
C338        C342   1.452       .  S
C339        N346   1.157       .  T
C340        N347   1.158       .  T
C341        N345   1.157       .  T
C342        N348   1.157       .  T
C343        N352   1.157       .  T
C344        N350   1.157       .  T
C353        C354   1.411       .  A
C353        C358   1.413       .  A
C353        C371   1.450       .  S
C354        C359   1.498   1_545  S
C354        C355   1.409       .  A
C355        C356   1.411       .  A
C355        C360   1.451   1_545  S
C356        C357   1.418       .  A
C356        C372   1.452       .  S
C357        C358   1.416       .  A
C358        C361   1.450       .  S
C359        C362   1.410       .  A
C359        C366   1.408   1_565  A
C360        N377   1.157       .  T
C361        N379   1.157       .  T
C362        C363   1.413       .  A
C362        C367   1.450       .  S
C363        C364   1.416       .  A
C363        C369   1.450       .  S
C364        C365   1.421       .  A
C365        C366   1.411   1_565  A
C365        C368   1.452   1_565  S
C366        C370   1.452       .  S
C367        N374   1.157       .  T
C368        N375   1.158       .  T
C369        N373   1.157       .  T
C370        N376   1.157       .  T
C371        N380   1.157       .  T
C372        N378   1.157       .  T
C381        C382   1.411       .  A
C381        C386   1.415       .  A
C381        C399   1.450   1_556  S
C382        C387   1.501       .  S
C382        C383   1.410       .  A
C383        C384   1.411       .  A
C383        C388   1.451       .  S
C384        C385   1.417       .  A
C384        C400   1.452       .  S
C385        C386   1.417       .  A
C386        C389   1.450       .  S
C387        C390   1.412   1_655  A
C387        C394   1.409       .  A
C388        N405   1.157       .  T
C389        N407   1.157   1_556  T
C390        C391   1.414       .  A
C390        C395   1.451       .  S
C391        C392   1.415       .  A
C391        C397   1.450       .  S
C392        C393   1.419   1_455  A
C393        C394   1.412       .  A
C393        C396   1.452       .  S
C394        C398   1.451       .  S
C395        N402   1.157       .  T
C396        N403   1.158       .  T
C397        N401   1.157       .  T
C398        N404   1.157       .  T
C399        N408   1.157       .  T
C400        N406   1.157       .  T
C409        C410   1.414       .  A
C409        C414   1.416       .  A
C409        C427   1.450       .  S
C410        C415   1.504   1_565  S
C410        C411   1.412       .  A
C411        C412   1.408       .  A
C411        C416   1.452       .  S
C412        C413   1.415       .  A
C412        C428   1.453       .  S
C413        C414   1.413       .  A
C414        C417   1.449       .  S
C415        C418   1.413       .  A
C415        C422   1.412   1_554  A
C416        N433   1.157   1_554  T
C417        N435   1.157       .  T
C418        C419   1.414       .  A
C418        C423   1.450       .  S
C419        C420   1.416   1_554  A
C419        C425   1.450       .  S
C420        C421   1.417       .  A
C421        C422   1.412       .  A
C421        C424   1.451       .  S
C422        C426   1.452   1_545  S
C423        N430   1.157       .  T
C424        N431   1.157       .  T
C425        N429   1.157       .  T
C426        N432   1.157       .  T
C427        N436   1.157       .  T
C428        N434   1.157       .  T
C437        C438   1.409       .  A
C437        C442   1.409       .  A
C437        C455   1.451       .  S
C438        C443   1.495       .  S
C438        C439   1.409       .  A
C439        C440   1.411       .  A
C439        C444   1.451       .  S
C440        C441   1.418       .  A
C440        C456   1.451       .  S
C441        C442   1.418       .  A
C442        C445   1.452       .  S
C443        C446   1.410       .  A
C443        C450   1.409       .  A
C444        N461   1.157       .  T
C445        N463   1.157       .  T
C446        C447   1.410       .  A
C446        C451   1.452       .  S
C447        C448   1.417       .  A
C447        C453   1.451       .  S
C448        C449   1.417       .  A
C449        C450   1.410       .  A
C449        C452   1.451       .  S
C450        C454   1.451       .  S
C451        N458   1.157       .  T
C452        N459   1.157       .  T
C453        N457   1.157       .  T
C454        N460   1.157       .  T
C455        N464   1.157       .  T
C456        N462   1.157       .  T
C465        C466   1.412       .  A
C465        C470   1.415       .  A
C465        C483   1.450       .  S
C466        C471   1.501       .  S
C466        C467   1.410       .  A
C467        C468   1.411       .  A
C467        C472   1.451       .  S
C468        C469   1.417       .  A
C468        C484   1.451       .  S
C469        C470   1.416       .  A
C470        C473   1.450       .  S
C471        C474   1.412       .  A
C471        C478   1.409       .  A
C472        N489   1.157       .  T
C473        N491   1.157       .  T
C474        C475   1.414       .  A
C474        C479   1.450       .  S
C475        C476   1.414       .  A
C475        C481   1.450       .  S
C476        C477   1.419       .  A
C477        C478   1.412       .  A
C477        C480   1.452       .  S
C478        C482   1.451       .  S
C479        N486   1.157       .  T
C480        N487   1.158       .  T
C481        N485   1.157       .  T
C482        N488   1.157       .  T
C483        N492   1.157       .  T
C484        N490   1.157       .  T
C493        C494   1.412       .  A
C493        C498   1.410       .  A
C493        C511   1.452       .  S
C494        C499   1.503   1_455  S
C494        C495   1.413       .  A
C495        C496   1.417       .  A
C495        C500   1.449       .  S
C496        C497   1.415       .  A
C496        C512   1.449       .  S
C497        C498   1.417       .  A
C498        C501   1.453       .  S
C499        C502   1.411       .  A
C499        C506   1.413       .  A
C500        N517   1.157   1_455  T
C501        N519   1.157       .  T
C502        C503   1.410       .  A
C502        C507   1.451       .  S
C503        C504   1.415       .  A
C503        C509   1.452       .  S
C504        C505   1.415       .  A
C505        C506   1.416       .  A
C505        C508   1.450       .  S
C506        C510   1.450       .  S
C507        N514   1.157   1_655  T
C508        N515   1.157       .  T
C509        N513   1.157       .  T
C510        N516   1.157       .  T
C511        N520   1.157   1_455  T
C512        N518   1.157       .  T
C521        C522   1.409       .  A
C521        C526   1.409       .  A
C521        C539   1.451       .  S
C522        C527   1.489       .  S
C522        C523   1.408       .  A
C523        C524   1.407       .  A
C523        C528   1.451       .  S
C524        C525   1.416       .  A
C524        C540   1.452       .  S
C525        C526   1.416       .  A
C526        C529   1.451       .  S
C527        C530   1.407       .  A
C527        C534   1.408       .  A
C528        N545   1.157       .  T
C529        N547   1.157   1_545  T
C530        C531   1.409       .  A
C530        C535   1.451       .  S
C531        C532   1.419       .  A
C531        C537   1.452       .  S
C532        C533   1.418       .  A
C533        C534   1.408       .  A
C533        C536   1.452       .  S
C534        C538   1.452       .  S
C535        N542   1.157       .  T
C536        N543   1.157       .  T
C537        N541   1.157       .  T
C538        N544   1.157       .  T
C539        N548   1.157       .  T
C540        N546   1.157       .  T
C549        C550   1.408       .  A
C549        C554   1.410       .  A
C549        C567   1.451       .  S
C550        C555   1.498       .  S
C550        C551   1.411   1_655  A
C551        C552   1.414       .  A
C551        C556   1.450       .  S
C552        C553   1.416       .  A
C552        C568   1.450       .  S
C553        C554   1.420   1_455  A
C554        C557   1.452       .  S
C555        C558   1.409       .  A
C555        C562   1.409       .  A
C556        N573   1.157       .  T
C557        N575   1.157       .  T
C558        C559   1.411       .  A
C558        C563   1.452       .  S
C559        C560   1.420       .  A
C559        C565   1.451       .  S
C560        C561   1.418       .  A
C561        C562   1.414       .  A
C561        C564   1.450       .  S
C562        C566   1.450       .  S
C563        N570   1.157       .  T
C564        N571   1.157       .  T
C565        N569   1.157       .  T
C566        N572   1.157       .  T
C567        N576   1.157       .  T
C568        N574   1.157       .  T
C577        C578   1.410       .  A
C577        C582   1.410       .  A
C577        C595   1.451       .  S
C578        C583   1.492       .  S
C578        C579   1.410       .  A
C579        C580   1.407       .  A
C579        C584   1.452       .  S
C580        C581   1.415       .  A
C580        C596   1.452       .  S
C581        C582   1.415       .  A
C582        C585   1.451       .  S
C583        C586   1.411       .  A
C583        C590   1.411       .  A
C584        N601   1.157       .  T
C585        N603   1.157       .  T
C586        C587   1.409       .  A
C586        C591   1.451       .  S
C587        C588   1.411       .  A
C587        C593   1.451       .  S
C588        C589   1.413       .  A
C589        C590   1.408       .  A
C589        C592   1.452       .  S
C590        C594   1.451       .  S
C591        N598   1.157       .  T
C592        N599   1.157       .  T
C593        N597   1.157       .  T
C594        N600   1.157       .  T
C595        N604   1.157       .  T
C596        N602   1.157       .  T
C605        C606   1.409       .  A
C605        C610   1.408       .  A
C605        C623   1.451       .  S
C606        C611   1.491       .  S
C606        C607   1.410       .  A
C607        C608   1.409       .  A
C607        C612   1.451       .  S
C608        C609   1.416   1_545  A
C608        C624   1.452   1_545  S
C609        C610   1.416   1_565  A
C610        C613   1.452       .  S
C611        C614   1.408       .  A
C611        C618   1.409       .  A
C612        N629   1.157       .  T
C613        N631   1.157   1_545  T
C614        C615   1.410       .  A
C614        C619   1.451       .  S
C615        C616   1.418       .  A
C615        C621   1.451       .  S
C616        C617   1.417       .  A
C617        C618   1.408       .  A
C617        C620   1.452       .  S
C618        C622   1.452       .  S
C619        N626   1.157       .  T
C620        N627   1.158       .  T
C621        N625   1.157       .  T
C622        N628   1.157       .  T
C623        N632   1.157       .  T
C624        N630   1.158       .  T
C633        C634   1.410   1_545  A
C633        C638   1.413       .  A
C633        C651   1.450       .  S
C634        C639   1.497       .  S
C634        C635   1.410   1_565  A
C635        C636   1.410       .  A
C635        C640   1.451   1_545  S
C636        C637   1.416       .  A
C636        C652   1.452       .  S
C637        C638   1.416       .  A
C638        C641   1.451       .  S
C639        C642   1.411       .  A
C639        C646   1.407   1_565  A
C640        N657   1.157       .  T
C641        N659   1.157       .  T
C642        C643   1.415       .  A
C642        C647   1.450       .  S
C643        C644   1.417       .  A
C643        C649   1.450       .  S
C644        C645   1.420       .  A
C645        C646   1.409   1_565  A
C645        C648   1.452   1_565  S
C646        C650   1.452       .  S
C647        N654   1.157       .  T
C648        N655   1.157       .  T
C649        N653   1.157       .  T
C650        N656   1.157       .  T
C651        N660   1.157       .  T
C652        N658   1.157       .  T
C661        C662   1.411       .  A
C661        C666   1.409       .  A
C661        C679   1.452       .  S
C662        C667   1.499       .  S
C662        C663   1.411       .  A
C663        C664   1.416       .  A
C663        C668   1.449       .  S
C664        C665   1.415       .  A
C664        C680   1.449       .  S
C665        C666   1.416       .  A
C666        C669   1.453       .  S
C667        C670   1.410       .  A
C667        C674   1.411       .  A
C668        N685   1.157       .  T
C669        N687   1.157       .  T
C670        C671   1.412       .  A
C670        C675   1.450       .  S
C671        C672   1.415       .  A
C671        C677   1.451       .  S
C672        C673   1.414       .  A
C673        C674   1.413       .  A
C673        C676   1.450       .  S
C674        C678   1.450       .  S
C675        N682   1.157       .  T
C676        N683   1.157       .  T
C677        N681   1.157       .  T
C678        N684   1.157       .  T
C679        N688   1.157       .  T
C680        N686   1.157       .  T
C689        C690   1.408       .  A
C689        C694   1.410       .  A
C689        C707   1.451       .  S
C690        C695   1.492       .  S
C690        C691   1.408       .  A
C691        C692   1.409       .  A
C691        C696   1.452       .  S
C692        C693   1.419       .  A
C692        C708   1.451       .  S
C693        C694   1.419       .  A
C694        C697   1.451       .  S
C695        C698   1.411       .  A
C695        C702   1.408       .  A
C696        N713   1.157       .  T
C697        N715   1.158       .  T
C698        C699   1.410       .  A
C698        C703   1.451       .  S
C699        C700   1.414       .  A
C699        C705   1.451       .  S
C700        C701   1.416       .  A
C701        C702   1.408       .  A
C701        C704   1.451       .  S
C702        C706   1.451       .  S
C703        N710   1.157       .  T
C704        N711   1.157       .  T
C705        N709   1.157   1_565  T
C706        N712   1.157       .  T
C707        N716   1.157       .  T
C708        N714   1.157       .  T
C717        C718   1.411       .  A
C717        C722   1.414       .  A
C717        C735   1.450       .  S
C718        C723   1.497       .  S
C718        C719   1.410       .  A
C719        C720   1.409       .  A
C719        C724   1.451       .  S
C720        C721   1.416       .  A
C720        C736   1.452       .  S
C721        C722   1.416       .  A
C722        C725   1.449       .  S
C723        C726   1.412       .  A
C723        C730   1.408       .  A
C724        N741   1.157       .  T
C725        N743   1.157       .  T
C726        C727   1.414       .  A
C726        C731   1.450       .  S
C727        C728   1.413       .  A
C727        C733   1.450       .  S
C728        C729   1.419       .  A
C729        C730   1.409       .  A
C729        C732   1.453       .  S
C730        C734   1.451       .  S
C731        N738   1.157       .  T
C732        N739   1.157       .  T
C733        N737   1.157       .  T
C734        N740   1.157       .  T
C735        N744   1.157   1_554  T
C736        N742   1.157       .  T
C745        C746   1.410   1_554  A
C745        C750   1.413   1_554  A
C745        C763   1.451       .  S
C746        C751   1.498   1_566  S
C746        C747   1.409       .  A
C747        C748   1.411       .  A
C747        C752   1.451   1_565  S
C748        C749   1.419       .  A
C748        C764   1.452       .  S
C749        C750   1.417       .  A
C750        C753   1.450   1_556  S
C751        C754   1.412       .  A
C751        C758   1.410       .  A
C752        N769   1.157       .  T
C753        N771   1.157       .  T
C754        C755   1.416       .  A
C754        C759   1.449       .  S
C755        C756   1.415       .  A
C755        C761   1.450       .  S
C756        C757   1.417       .  A
C757        C758   1.407       .  A
C757        C760   1.453       .  S
C758        C762   1.453       .  S
C759        N766   1.157       .  T
C760        N767   1.157       .  T
C761        N765   1.157       .  T
C762        N768   1.157   1_544  T
C763        N772   1.157       .  T
C764        N770   1.158       .  T
C773        C774   1.411       .  A
C773        C778   1.410       .  A
C773        C791   1.450       .  S
C774        C779   1.492       .  S
C774        C775   1.411       .  A
C775        C776   1.408       .  A
C775        C780   1.450       .  S
C776        C777   1.411       .  A
C776        C792   1.451       .  S
C777        C778   1.411       .  A
C778        C781   1.451       .  S
C779        C782   1.409       .  A
C779        C786   1.409       .  A
C780        N797   1.157       .  T
C781        N799   1.158       .  T
C782        C783   1.412       .  A
C782        C787   1.451       .  S
C783        C784   1.418       .  A
C783        C789   1.451       .  S
C784        C785   1.417       .  A
C785        C786   1.408       .  A
C785        C788   1.452       .  S
C786        C790   1.452       .  S
C787        N794   1.157       .  T
C788        N795   1.157       .  T
C789        N793   1.158       .  T
C790        N796   1.157       .  T
C791        N800   1.157       .  T
C792        N798   1.157       .  T
C801        C802   1.409       .  A
C801        C806   1.411   1_554  A
C801        C819   1.451       .  S
C802        C807   1.493       .  S
C802        C803   1.409   1_554  A
C803        C804   1.410       .  A
C803        C808   1.452       .  S
C804        C805   1.417       .  A
C804        C820   1.451   1_455  S
C805        C806   1.417       .  A
C806        C809   1.451       .  S
C807        C810   1.410       .  A
C807        C814   1.408       .  A
C808        N825   1.157       .  T
C809        N827   1.157   1_556  T
C810        C811   1.410       .  A
C810        C815   1.451       .  S
C811        C812   1.417       .  A
C811        C817   1.451       .  S
C812        C813   1.419       .  A
C813        C814   1.409       .  A
C813        C816   1.452       .  S
C814        C818   1.451   1_554  S
C815        N822   1.157       .  T
C816        N823   1.158       .  T
C817        N821   1.157       .  T
C818        N824   1.157       .  T
C819        N828   1.157       .  T
C820        N826   1.157       .  T
