geometry optimzed in LAMMPS
_audit_creation_date              2020-12-01 
_audit_creation_method            'lammps2cif' 
_symmetry_space_group_name_H-M    'P1' 
_symmetry_Int_Tables_number       1 
_symmetry_cell_setting            triclinic 
loop_ 
_symmetry_equiv_pos_as_xyz 
  x,y,z 
_cell_length_a                    29.43082365 
_cell_length_b                    30.052657095973142 
_cell_length_c                    39.39860479727286 
_cell_angle_alpha                 87.05152165177681 
_cell_angle_beta                  89.18426353445548 
_cell_angle_gamma                 86.58025167198144 
loop_ 
_atom_site_label 
_atom_site_type_symbol 
_atom_site_fract_x 
_atom_site_fract_y 
_atom_site_fract_z 
_atom_site_charge 
C1          C  0.26074383  0.23457113  0.36710513    -0.01900
O2          O  0.16384193  0.11326475  0.26944606    -0.74800
O3          O  0.23271460  0.13811691  0.25269076    -0.53700
C4          C  0.19075208  0.14461529  0.26111892     0.79000
O5          O  0.28118220  0.40302421  0.33266142    -0.57600
O6          O  0.23692795  0.36697947  0.29702695    -0.52400
C7          C  0.26234374  0.36683555  0.32294705     0.71000
O8          O  0.27226187  0.07139839  0.33501345    -0.73900
O9          O  0.30419304  0.11230425  0.29187629    -0.54500
C10         C  0.28451816  0.10985983  0.32107269     0.77000
O11         O  0.11817809  0.47752922  0.28995468    -0.59100
O12         O  0.14996844  0.40956281  0.27681790    -0.52200
C13         C  0.11872059  0.43474233  0.29055584     0.73600
Zr14       Zr  0.16889798  0.53267424  0.26698835     2.54700
O15         O  0.13297975  0.56143410  0.31812834    -0.79600
O16         O  0.10031251  0.55257584  0.23428928    -0.93000
Zr17       Zr  0.28389895  0.48834635  0.31516286     2.64700
O18         O  0.25462390  0.48817863  0.37332472    -0.98000
O19         O  0.35880056  0.48451165  0.34098953    -0.80100
O20         O  0.23748735  0.04674778  0.29226044    -0.83400
O21         O  0.21140302  0.47153081  0.29517475    -2.18100
O22         O  0.21789623  0.42215871  0.15760039    -0.66800
O23         O  0.20113877  0.37766844  0.20427234    -0.51400
C24         C  0.21133836  0.38250857  0.17258989     0.72000
O25         O  0.37502680  0.01010637  0.19688208    -0.59700
O26         O  0.35078042  0.07990399  0.21147147    -0.51700
C27         C  0.37670278  0.05250970  0.19466722     0.73800
O28         O  0.33964454  0.37881023  0.22661300    -0.71100
O29         O  0.26959055  0.35444960  0.24029739    -0.49800
C30         C  0.31163704  0.34773760  0.23251551     0.75200
O31         O  0.22671681  0.08777325  0.16105196    -0.66400
O32         O  0.26755753  0.12556619  0.19805394    -0.53600
C33         C  0.24412771  0.12471403  0.17108487     0.73500
Zr34       Zr  0.22283689  0.00250206  0.18086728     2.77500
O35         O  0.26748445  0.00387615  0.12849342    -0.97200
O36         O  0.15066536  0.00912983  0.15114391    -0.78000
Zr37       Zr  0.33949543  0.46087780  0.22496847     2.70100
O38         O  0.37810596  0.42719733  0.17665269    -0.79200
O39         O  0.41049867  0.44857094  0.25573710    -0.98300
Zr40       Zr  0.28056481  0.07195733  0.24440499     2.21500
Zr41       Zr  0.22386687  0.42054985  0.25098588     2.11100
O42         O  0.26864703  0.44580905  0.20398056    -2.47000
O43         O  0.29420811  0.01798448  0.20331249    -0.79000
O44         O  0.17811236  0.47957885  0.22343950    -0.71200
O45         O  0.32593175  0.01396044  0.27438519    -2.32200
O46         O  0.20823483  0.05462409  0.22373909    -2.28400
O47         O  0.29622272  0.43581163  0.27249790    -0.73000
H48         H  0.19519516  0.45870435  0.31454548     0.79000
H49         H  0.35438233  0.02491301  0.28138246     0.80100
H50         H  0.27898278  0.42233796  0.18963364     0.82300
H51         H  0.19102682  0.08047983  0.21434083     0.79900
H52         H  0.35607876  0.97436704  0.36580859     0.43000
H53         H  0.41871328  0.41637776  0.25366501     0.41900
H54         H  0.41909980  0.92506756  0.20269357     0.41600
H55         H  0.24281537  0.53542489  0.10777261     0.39500
H56         H  0.13627406  0.54552142  0.15845363     0.42700
H57         H  0.07303892  0.05973368  0.26089424     0.37500
H58         H  0.14356623  0.03259412  0.34255409     0.43600
H59         H  0.22296391  0.50102702  0.37113607     0.40000
H60         H  0.29915383  0.99906847  0.13649249     0.44900
H61         H  0.07666077  0.56037506  0.25144269     0.43600
H62         H  0.25136281  0.45639002  0.38023477     0.43800
H63         H  0.43323494  0.46380587  0.24128673     0.44100
N64         N  0.44811339  0.15581433  0.23076700    -0.36100
N65         N  0.96409113  0.26058338  0.28999178    -0.56600
N66         N  0.01488095  0.30279333  0.23682814    -0.36100
N67         N  0.03143428  0.22839786  0.19124629    -0.56600
C68         C  0.44698785  0.16844017  0.26319298     0.27500
C69         C  0.49177059  0.14243785  0.22373789     0.27500
C70         C  0.00136532  0.33929610  0.25391484     0.27500
C71         C  0.04983112  0.31399331  0.21615454     0.27500
C72         C  0.43102424  0.23139131  0.29701679     0.36100
C73         C  0.95616567  0.30222623  0.29991137     0.36100
C74         C  0.53670572  0.17853895  0.18053584     0.36100
C75         C  0.06839056  0.25068989  0.18290284     0.36100
C76         C  0.48908172  0.15765234  0.27805404    -0.21400
C77         C  0.51774434  0.14286177  0.25265739    -0.21400
C78         C  0.02432710  0.37531153  0.23998641    -0.21300
C79         C  0.05610428  0.35885273  0.21717391    -0.21300
C80         C  0.40550007  0.25616154  0.32012357    -0.22400
C81         C  0.91573335  0.30560999  0.31804612    -0.22400
C82         C  0.57029337  0.17876087  0.15581534    -0.22400
C83         C  0.09687196  0.22513881  0.16211799    -0.22400
C84         C  0.41432242  0.20011925  0.27588480    -0.17800
C85         C  0.51038068  0.14332428  0.19061723    -0.17800
C86         C  0.08282602  0.28289134  0.20412464    -0.17800
C87         C  0.98034753  0.33828468  0.28698405    -0.17800
H88         H  0.49968891  0.16586098  0.30306187     0.15200
H89         H  0.55431280  0.13726356  0.25434338     0.15200
H90         H  0.02153571  0.40938414  0.24745469     0.15200
H91         H  0.08279005  0.37705611  0.20465786     0.15200
H92         H  0.37366858  0.24760070  0.33209191     0.13400
H93         H  0.89886156  0.33574136  0.32720882     0.13400
H94         H  0.58201713  0.15135067  0.14056205     0.13400
H95         H  0.13134801  0.23168223  0.15453846     0.13400
H96         H  0.42251229  0.16323680  0.21301383     0.26700
H97         H  0.00558826  0.27027894  0.24132031     0.26700
C98         C  0.23767723  0.25736488  0.12507795    -0.01900
N99         N  0.19381213  0.55693325  0.98879711    -0.36100
N100        N  0.17264117  0.46610699  0.05773955    -0.56600
N101        N  0.27340105  0.45205911  0.05718158    -0.36100
N102        N  0.32270306  0.99429378  0.03966499    -0.56600
C103        C  0.16758580  0.54435310  0.01558400     0.27500
C104        C  0.24526922  0.05516681  0.05013813     0.27500
C105        C  0.25558936  0.41768031  0.07469730     0.27500
C106        C  0.36781153  0.92317000  0.07922071     0.27500
C107        C  0.13426874  0.47792564  0.04038478     0.36100
C108        C  0.17571182  0.42130539  0.06103678     0.36100
C109        C  0.31525751  0.03136605  0.01950015     0.36100
C110        C  0.36506338  0.97736451  0.03301208     0.36100
C111        C  0.18499629  0.55892313  0.04539182    -0.21400
C112        C  0.21470140  0.08714875  0.06349348    -0.21400
C113        C  0.28847251  0.39683328  0.09583701    -0.21300
C114        C  0.35309618  0.92668453  0.11251911    -0.21300
C115        C  0.10874223  0.44052631  0.03861771    -0.22400
C116        C  0.13595104  0.40444960  0.05054426    -0.22400
C117        C  0.35184014  0.03701529  0.99766615    -0.22400
C118        C  0.38381740  0.00309519  0.00660373    -0.22400
C119        C  0.13534345  0.51192522  0.01401581    -0.17800
C120        C  0.28007338  0.06359024  0.02588154    -0.17800
C121        C  0.38999674  0.95650246  0.06036909    -0.17800
C122        C  0.21797586  0.39736062  0.06239818    -0.17800
H123        H  0.17243267  0.55255439  0.07103382     0.15200
H124        H  0.21711481  0.12281294  0.06290853     0.15200
H125        H  0.28632346  0.36559743  0.11039813     0.15200
H126        H  0.36557826  0.94832380  0.13092492     0.15200
H127        H  0.07773754  0.43807945  0.02463202     0.13400
H128        H  0.12963783  0.36980715  0.04782405     0.13400
H129        H  0.35719525  0.06535727  0.98030263     0.13400
H130        H  0.41884311  0.00134691  0.99789347     0.13400
H131        H  0.19089162  0.54872699  0.96351277     0.26700
H132        H  0.25560001  0.47162896  0.03877597     0.26700
O133        O  0.09005977  0.23758958  0.40218692    -0.74800
O134        O  0.12845940  0.27943914  0.43782327    -0.53700
C135        C  0.12738267  0.25534790  0.41168946     0.79000
O136        O  0.37486499  0.33785278  0.98531752    -0.59400
O137        O  0.35444808  0.26603258  0.99469372    -0.52400
C138        C  0.34520432  0.30815818  0.99014474     0.71000
O139        O  0.01035259  0.40071438  0.47858927    -0.73900
O140        O  0.08345706  0.37126456  0.47759190    -0.54500
C141        C  0.05365976  0.40418020  0.47959228     0.77000
O142        O  0.42272372  0.21444480  0.40224799    -0.59100
O143        O  0.38181542  0.19135040  0.44886213    -0.52200
C144        C  0.38433981  0.20479341  0.41756710     0.73600
Zr145      Zr  0.50561847  0.22158735  0.42001556     2.54700
O146        O  0.50623343  0.24286926  0.35973182    -0.79600
O147        O  0.51387845  0.14436262  0.40387985    -0.93000
Zr148      Zr  0.96010064  0.33939863  0.47526557     2.64700
O149        O  0.95055526  0.37095906  0.41743933    -0.98000
O150        O  0.94410391  0.40014606  0.00055905    -0.80100
O151        O  0.02214551  0.30488799  0.44390486    -0.83400
O152        O  0.44587282  0.26482063  0.44702058    -2.18100
O153        O  0.49822122  0.11849878  0.03125964    -0.66800
O154        O  0.42369598  0.14318328  0.02678779    -0.51400
C155        C  0.45577153  0.11360025  0.03564371     0.72000
O156        O  0.07585676  0.26909928  0.08113759    -0.59700
O157        O  0.12394865  0.28604203  0.03687147    -0.51700
C158        C  0.11661157  0.27508672  0.06833691     0.73800
O159        O  0.40819391  0.27029348  0.08599185    -0.71100
O160        O  0.37034611  0.22832916  0.05037745    -0.49800
C161        C  0.37095436  0.25176577  0.07671224     0.75200
O162        O  0.13012155  0.18207683  0.50939291    -0.66400
O163        O  0.15018598  0.25291486  0.49517728    -0.53600
C164        C  0.15942092  0.21127305  0.50126365     0.73500
Zr165      Zr  0.03636399  0.16553013  0.01524968     2.77500
O166        O  0.06161062  0.14321919  0.07259871    -0.97200
O167        O  0.07325692  0.11004462  0.48659086    -0.78000
Zr168      Zr  0.99300656  0.27650641  0.06136267     2.70100
O169        O  0.98711213  0.25111152  0.12067541    -0.79200
O170        O  0.99106399  0.35225390  0.08095644    -0.98300
Zr171      Zr  0.07770151  0.29135582  0.48719731     2.21500
Zr172      Zr  0.42386484  0.22097983  0.00303124     2.11100
O173        O  0.48167307  0.20522091  0.04480535    -2.47000
O174        O  0.05362545  0.23463486  0.03481439    -0.79000
O175        O  0.48136172  0.17768634  0.46912399    -0.71200
O176        O  0.02092217  0.32055235  0.01356036    -2.32200
O177        O  0.06454387  0.22054134  0.46622333    -2.28400
O178        O  0.43665949  0.29049741  0.02701989    -0.73000
H179        H  0.42143943  0.27492615  0.43199027     0.79000
H180        H  0.03215765  0.34817473  0.02056474     0.80100
H181        H  0.47301182  0.18559151  0.06363007     0.82300
H182        H  0.09091975  0.20525022  0.45702376     0.79900
H183        H  0.96248629  0.42377364  0.99000485     0.43000
H184        H  0.46078812  0.35580454  0.09602853     0.41900
H185        H  0.99554972  0.27688652  0.13339788     0.41600
H186        H  0.57857805  0.15867672  0.07872484     0.39500
H187        H  0.58783698  0.08614623  0.49930696     0.42700
H188        H  0.02655310  0.16259522  0.37856747     0.37500
H189        H  0.00092460  0.23803464  0.35268352     0.43600
H190        H  0.43141110  0.39602758  0.41273789     0.40000
H191        H  0.04780767  0.16670551  0.08688996     0.44900
H192        H  0.49607747  0.14391365  0.38277279     0.43600
H193        H  0.94885390  0.40366567  0.41976626     0.43800
H194        H  0.02310875  0.35713341  0.08630823     0.44100
C195        C  0.42467223  0.99717586  0.56009269    -0.12800
C196        C  0.41866987  0.98770214  0.07676373     0.09300
C197        C  0.39553618  0.02661488  0.08848096    -0.12800
C198        C  0.40725021  0.06835323  0.07506460    -0.12800
C199        C  0.44507718  0.07123392  0.05333065     0.09300
C200        C  0.44692465  0.03680190  0.55625226    -0.12800
H201        H  0.44302892  0.96594142  0.55499534     0.13300
H202        H  0.36285039  0.02458157  0.10120065     0.13300
H203        H  0.38551034  0.09771470  0.08004381     0.13300
H204        H  0.48276593  0.03506690  0.54965632     0.13300
C205        C  0.07531031  0.50124631  0.97218487    -0.12800
C206        C  0.12045185  0.49262215  0.53563865     0.09300
C207        C  0.13902849  0.48189645  0.50368952    -0.12800
C208        C  0.11429701  0.45811965  0.48152106    -0.12800
C209        C  0.07020409  0.44645289  0.49049984     0.09300
C210        C  0.05750084  0.46656498  0.95545103    -0.12800
H211        H  0.05206404  0.52524477  0.98380544     0.13300
H212        H  0.17482221  0.48524634  0.49821403     0.13300
H213        H  0.13156633  0.44399511  0.45974698     0.13300
H214        H  0.02082608  0.46590319  0.95412184     0.13300
C215        C  0.26912033  0.39147119  0.50174665    -0.12800
C216        C  0.23046418  0.36958807  0.03325685     0.09300
C217        C  0.24025684  0.32439633  0.03977929    -0.12800
C218        C  0.27234675  0.30094175  0.02042753    -0.12800
C219        C  0.29760087  0.32403805  0.99557632     0.09300
C220        C  0.29193289  0.37326405  0.47385495    -0.12800
H221        H  0.26927111  0.42708038  0.50469779     0.13300
H222        H  0.22894522  0.30968413  0.06299064     0.13300
H223        H  0.28284814  0.26719985  0.02908561     0.13300
H224        H  0.31040233  0.39517879  0.45668513     0.13300
C225        C  0.25068009  0.15056167  0.45373181    -0.12800
C226        C  0.27051009  0.10192560  0.00173939     0.09300
C227        C  0.27307121  0.14513177  0.01342368    -0.12800
C228        C  0.23556759  0.17583325  0.00914179    -0.12800
C229        C  0.20528512  0.19450087  0.49282721     0.09300
C230        C  0.21251300  0.17837685  0.46035441    -0.12800
H231        H  0.25157511  0.13306000  0.43032623     0.13300
H232        H  0.29904160  0.15180458  0.03138508     0.13300
H233        H  0.23420610  0.20629282  0.02271195     0.13300
H234        H  0.18589541  0.18230545  0.44169428     0.13300
C235        C  0.28517085  0.25874586  0.10699024    -0.12700
C236        C  0.32532379  0.25749406  0.09530240    -0.14300
C237        C  0.19560257  0.25971710  0.10305798    -0.12700
C238        C  0.15821584  0.26633456  0.08906670    -0.14300
C239        C  0.22043671  0.33888284  0.15525166    -0.12700
C240        C  0.22987968  0.30046116  0.14492617    -0.14300
C241        C  0.23727761  0.17037530  0.15336461    -0.12700
C242        C  0.23667380  0.21086210  0.14370724    -0.14300
C243        C  0.33489458  0.22959051  0.26523659    -0.12800
C244        C  0.37925071  0.22164073  0.25269620     0.09300
C245        C  0.39471813  0.24952455  0.22555145    -0.12800
C246        C  0.37047286  0.28939923  0.21632343    -0.12800
C247        C  0.32958001  0.30091829  0.23309147     0.09300
C248        C  0.30994085  0.26898294  0.25528490    -0.12800
H249        H  0.32234635  0.20881681  0.28612835     0.13300
H250        H  0.42885880  0.24431950  0.21535171     0.13300
H251        H  0.38577806  0.31296788  0.19853256     0.13300
H252        H  0.27787233  0.27670833  0.26813338     0.13300
C253        C  0.12851187  0.20238762  0.27182775    -0.12800
C254        C  0.17092665  0.19093968  0.25722171     0.09300
C255        C  0.18950290  0.22098070  0.23292650    -0.12800
C256        C  0.16240886  0.25687131  0.21885082    -0.12800
C257        C  0.11690868  0.26342343  0.22916890     0.09300
C258        C  0.10186017  0.23868083  0.25817861    -0.12800
H259        H  0.11401552  0.18074550  0.29143167     0.13300
H260        H  0.22280100  0.21378924  0.22177825     0.13300
H261        H  0.17492781  0.27579862  0.19705628     0.13300
H262        H  0.06755761  0.24322435  0.26782554     0.13300
C263        C  0.08609810  0.36680363  0.31690792    -0.12800
C264        C  0.08078857  0.41249035  0.30759879     0.09300
C265        C  0.03728402  0.43421654  0.30981058    -0.12800
C266        C  0.99904294  0.40864774  0.31267651    -0.12800
C267        C  0.00495600  0.36201853  0.31231593     0.09300
C268        C  0.04795854  0.34177445  0.32046313    -0.12800
H269        H  0.11948071  0.34951715  0.31728618     0.13300
H270        H  0.03239334  0.46987563  0.30445700     0.13300
H271        H  0.96583105  0.42504021  0.30910745     0.13300
H272        H  0.05333931  0.30575076  0.32143348     0.13300
C273        C  0.45589276  0.04742798  0.17404319    -0.12800
C274        C  0.41278656  0.07006727  0.17307065     0.09300
C275        C  0.40807976  0.11339396  0.15820916    -0.12800
C276        C  0.44690834  0.13724308  0.15264939    -0.12800
C277        C  0.48859268  0.11832033  0.16506064     0.09300
C278        C  0.49431569  0.07189497  0.16964480    -0.12800
H279        H  0.46015241  0.01312762  0.18391090     0.13300
H280        H  0.37481817  0.13064533  0.15566455     0.13300
H281        H  0.44231602  0.17290920  0.14739509     0.13300
H282        H  0.52689571  0.05633590  0.17738293     0.13300
C283        C  0.30137993  0.22533407  0.38990797    -0.12700
C284        C  0.33981324  0.21473719  0.40096735    -0.14300
C285        C  0.21300162  0.23862066  0.38396539    -0.12700
C286        C  0.17285975  0.24569594  0.39432307    -0.14300
C287        C  0.26744534  0.28073047  0.34946301    -0.12700
C288        C  0.26896999  0.32107227  0.34015487    -0.14300
C289        C  0.27263825  0.15402346  0.33641467    -0.12700
C290        C  0.26440227  0.19259737  0.34630343    -0.14300
C291        C  0.26202376  0.23503144  0.86824485    -0.01900
O292        O  0.17149367  0.11937147  0.77062326    -0.74800
O293        O  0.23990562  0.14279866  0.75150265    -0.53700
C294        C  0.19919146  0.15003893  0.76228944     0.79000
O295        O  0.27909059  0.40571199  0.83541888    -0.57600
O296        O  0.23531882  0.36901837  0.79978326    -0.52400
C297        C  0.26040740  0.36922580  0.82586712     0.71000
O298        O  0.27590986  0.07523762  0.83219305    -0.73900
O299        O  0.30757563  0.11632543  0.78904833    -0.54500
C300        C  0.28851843  0.11354546  0.81849459     0.77000
O301        O  0.11809728  0.48050415  0.79066759    -0.59100
O302        O  0.14931728  0.41169139  0.77905078    -0.52200
C303        C  0.11834352  0.43778932  0.79235829     0.73600
Zr304      Zr  0.16898210  0.53478428  0.76744771     2.54700
O305        O  0.13284624  0.56250061  0.81875762    -0.79600
O306        O  0.09983874  0.55328209  0.73519767    -0.93000
Zr307      Zr  0.28240224  0.49138556  0.81774205     2.64700
O308        O  0.25894050  0.48662718  0.87731624    -0.98000
O309        O  0.35872027  0.49146897  0.84089381    -0.80100
O310        O  0.24063924  0.05217278  0.78829266    -0.83400
O311        O  0.21077342  0.47401177  0.79655043    -2.18100
O312        O  0.21828772  0.42513711  0.65940721    -0.66800
O313        O  0.20487470  0.37836224  0.70557101    -0.51400
C314        C  0.21329638  0.38485994  0.67369922     0.72000
O315        O  0.38175733  0.01572237  0.69571866    -0.59700
O316        O  0.35529568  0.08548348  0.70864851    -0.51700
C317        C  0.38283267  0.05821096  0.69313675     0.73800
O318        O  0.33960131  0.38129966  0.72679819    -0.71100
O319        O  0.27136229  0.35568475  0.74391202    -0.49800
C320        C  0.31274906  0.34969818  0.73391778     0.75200
O321        O  0.23130883  0.09385510  0.65738626    -0.66400
O322        O  0.27193123  0.13113144  0.69468338    -0.53600
C323        C  0.24862403  0.13064302  0.66759696     0.73500
Zr324      Zr  0.22541811  0.00910570  0.67740496     2.77500
O325        O  0.25397160  0.01142775  0.61910940    -0.97200
O326        O  0.14786093  0.01704680  0.65626927    -0.78000
Zr327      Zr  0.33949660  0.46254598  0.72951071     2.70100
O328        O  0.39203427  0.42666195  0.68950116    -0.79200
O329        O  0.40289702  0.45060849  0.76818834    -0.98300
Zr330      Zr  0.28478447  0.07655466  0.74074333     2.21500
Zr331      Zr  0.22386724  0.42187320  0.75308210     2.11100
O332        O  0.26962844  0.44768340  0.70661746    -2.47000
O333        O  0.29207163  0.02054435  0.70440576    -0.79000
O334        O  0.17970174  0.48131549  0.72432873    -0.71200
O335        O  0.32927602  0.01868453  0.77128761    -2.32200
O336        O  0.21145542  0.06212461  0.71995334    -2.28400
O337        O  0.29524291  0.43744077  0.77613080    -0.73000
H338        H  0.19428634  0.46167932  0.81583044     0.79000
H339        H  0.35770197  0.02922072  0.77872095     0.80100
H340        H  0.28007002  0.42452635  0.69201792     0.82300
H341        H  0.19486964  0.08865333  0.71094103     0.79900
H342        H  0.36174191  0.01924726  0.84848166     0.43000
H343        H  0.38878566  0.43969591  0.78975636     0.41900
H344        H  0.37601051  0.93163305  0.66771908     0.41600
H345        H  0.26362894  0.53872937  0.61415680     0.39500
H346        H  0.14347479  0.54692528  0.64927743     0.42700
H347        H  0.10444053  0.08974227  0.72669162     0.37500
H348        H  0.09577979  0.07226091  0.80946070     0.43600
H349        H  0.24436982  0.51637870  0.88163268     0.40000
H350        H  0.25293449  0.04333161  0.61155731     0.44900
H351        H  0.10336278  0.58392755  0.72544686     0.43600
H352        H  0.23347994  0.46648214  0.87815760     0.43800
H353        H  0.42001621  0.42390465  0.75984390     0.44100
N354        N  0.45735200  0.16333683  0.72976255    -0.36100
N355        N  0.96686411  0.26236387  0.79590028    -0.56600
N356        N  0.02324526  0.30293280  0.74634974    -0.36100
N357        N  0.04092489  0.22658338  0.70403957    -0.56600
C358        C  0.45756388  0.17785418  0.76161746     0.27500
C359        C  0.50042305  0.14874484  0.72222281     0.27500
C360        C  0.00683524  0.33980824  0.76174235     0.27500
C361        C  0.05633376  0.31537258  0.72446228     0.27500
C362        C  0.43825877  0.24044445  0.79635595     0.36100
C363        C  0.95993263  0.30355273  0.80691525     0.36100
C364        C  0.54012580  0.18939247  0.67859369     0.36100
C365        C  0.07495216  0.25114962  0.69258533     0.36100
C366        C  0.50005200  0.16768543  0.77586779    -0.21400
C367        C  0.52735371  0.15025086  0.75056734    -0.21400
C368        C  0.02677000  0.37659996  0.74607298    -0.21300
C369        C  0.05923219  0.36085014  0.72348415    -0.21300
C370        C  0.40895070  0.26564393  0.81694008    -0.22400
C371        C  0.91977513  0.30670397  0.82545219    -0.22400
C372        C  0.56928506  0.19477609  0.65120798    -0.22400
C373        C  0.10059307  0.22804035  0.66859712    -0.22400
C374        C  0.42412764  0.20859005  0.77440803    -0.17800
C375        C  0.51789687  0.15120735  0.68880166    -0.17800
C376        C  0.08976628  0.28556879  0.71159502    -0.17800
C377        C  0.98424150  0.33966771  0.79417868    -0.17800
H378        H  0.51167656  0.17720378  0.80025978     0.15200
H379        H  0.56389140  0.14422131  0.75149992     0.15200
H380        H  0.02051987  0.41126892  0.75130391     0.15200
H381        H  0.08354507  0.38026050  0.70924748     0.15200
H382        H  0.37623868  0.25643467  0.82702909     0.13400
H383        H  0.90344284  0.33660242  0.83540701     0.13400
H384        H  0.58017015  0.17008760  0.63336613     0.13400
H385        H  0.13239617  0.23743887  0.65704442     0.13400
H386        H  0.43126522  0.17014384  0.71230129     0.26700
H387        H  0.01741338  0.26989259  0.75274444     0.26700
C388        C  0.23978049  0.26345092  0.62145043    -0.01900
N389        N  0.22472928  0.51831651  0.54857975    -0.36100
N390        N  0.21005656  0.43650020  0.58572257    -0.56600
N391        N  0.33708461  0.39785862  0.55743239    -0.36100
N392        N  0.30060164  0.01214728  0.50218566    -0.56600
C393        C  0.18373812  0.52337205  0.56403976     0.27500
C394        C  0.22939460  0.07656936  0.50603278     0.27500
C395        C  0.30064710  0.38999105  0.57736075     0.27500
C396        C  0.32370900  0.94097166  0.55162597     0.27500
C397        C  0.16609248  0.44775891  0.57805158     0.36100
C398        C  0.21727903  0.39330560  0.57863437     0.36100
C399        C  0.30397341  0.05226692  0.48586277     0.36100
C400        C  0.34328588  0.99445485  0.50682552     0.36100
C401        C  0.17467678  0.56678226  0.57242976    -0.21400
C402        C  0.22230729  0.07936783  0.54063963    -0.21400
C403        C  0.30877309  0.40382745  0.60960492    -0.21300
C404        C  0.31059622  0.93473925  0.58534157    -0.21300
C405        C  0.14369069  0.40990022  0.57161066    -0.22400
C406        C  0.17672808  0.37628440  0.57041412    -0.22400
C407        C  0.34828268  0.05811722  0.47557265    -0.22400
C408        C  0.37340667  0.02127068  0.48893129    -0.22400
C409        C  0.15209799  0.49084987  0.56482483    -0.17800
C410        C  0.26985774  0.08613116  0.48890857    -0.17800
C411        C  0.35351199  0.97228057  0.53855341    -0.17800
C412        C  0.25869153  0.37789483  0.56456429    -0.17800
H413        H  0.14428627  0.58058773  0.58459714     0.15200
H414        H  0.24481069  0.09238859  0.55868153     0.15200
H415        H  0.28651245  0.40238186  0.63124952     0.15200
H416        H  0.32503117  0.94875574  0.60724020     0.15200
H417        H  0.10973350  0.40802811  0.56192884     0.13400
H418        H  0.17341499  0.34614323  0.55769990     0.13400
H419        H  0.36181219  0.08813284  0.46412095     0.13400
H420        H  0.41016695  0.01820755  0.49002575     0.13400
H421        H  0.23692453  0.49001339  0.53625583     0.26700
H422        H  0.34141694  0.39240220  0.53168562     0.26700
O423        O  0.08960310  0.22591745  0.90217283    -0.74800
O424        O  0.13037308  0.26497481  0.93835807    -0.53700
C425        C  0.12779641  0.24251879  0.91176176     0.79000
O426        O  0.37950934  0.33675823  0.46498968    -0.59400
O427        O  0.35540533  0.26709509  0.47762391    -0.52400
C428        C  0.34809043  0.30893209  0.47018106     0.71000
O429        O  0.02344676  0.38331406  0.95159469    -0.73900
O430        O  0.09300066  0.35198545  0.96663794    -0.54500
C431        C  0.06662276  0.38458531  0.95469385     0.77000
O432        O  0.42152368  0.22806789  0.90831211    -0.59100
O433        O  0.38130697  0.20111277  0.95434262    -0.52200
C434        C  0.38393956  0.21501987  0.92302176     0.73600
Zr435      Zr  0.50332770  0.24118548  0.92509145     2.54700
O436        O  0.49456766  0.29160944  0.87522647    -0.79600
O437        O  0.51024999  0.17708314  0.88965307    -0.93000
Zr438      Zr  0.96548396  0.33359292  0.97006889     2.64700
O439        O  0.94390247  0.37135567  0.91587715    -0.98000
O440        O  0.92128450  0.40565607  0.49731762    -0.80100
O441        O  0.02553127  0.29187104  0.94248000    -0.83400
O442        O  0.44341367  0.27420715  0.95858505    -2.18100
O443        O  0.48323857  0.11707764  0.53499983    -0.66800
O444        O  0.41199253  0.14803021  0.52433592    -0.51400
C445        C  0.43983721  0.11701044  0.53711391     0.72000
O446        O  0.07589785  0.27193524  0.58266219    -0.59700
O447        O  0.12130041  0.29462237  0.53830834    -0.51700
C448        C  0.11561875  0.28013094  0.56916598     0.73800
O449        O  0.40716345  0.27452921  0.57723145    -0.71100
O450        O  0.36640043  0.23565612  0.54116140    -0.49800
C451        C  0.36893931  0.25790556  0.56800940     0.75200
O452        O  0.11932650  0.15984530  0.00724392    -0.66400
O453        O  0.14752666  0.22734723  0.99241797    -0.53600
C454        C  0.15195322  0.18507285  0.99843644     0.73500
Zr455      Zr  0.04686464  0.17687735  0.51499833     2.77500
O456        O  0.07836196  0.14998295  0.56976830    -0.97200
O457        O  0.05566583  0.09273086  0.99277746    -0.78000
Zr458      Zr  0.99300948  0.27874673  0.56432097     2.70100
O459        O  0.99433184  0.24769130  0.62244722    -0.79200
O460        O  0.98719359  0.35035058  0.59113211    -0.98300
Zr461      Zr  0.08003423  0.27608511  0.98638674     2.21500
Zr462      Zr  0.42075465  0.22086984  0.49533535     2.11100
O463        O  0.47498793  0.20825708  0.53951276    -2.47000
O464        O  0.04714073  0.24791476  0.52915882    -0.79000
O465        O  0.48555775  0.18776585  0.97060159    -0.71200
O466        O  0.01653935  0.32765460  0.51840113    -2.32200
O467        O  0.05928092  0.20675036  0.96627260    -2.28400
O468        O  0.43757947  0.29178961  0.51434153    -0.73000
H469        H  0.41736646  0.28370759  0.94505508     0.79000
H470        H  0.02586851  0.35413221  0.52844032     0.80100
H471        H  0.46316104  0.19211485  0.55919608     0.82300
H472        H  0.08430868  0.18968118  0.95634533     0.79900
H473        H  0.91887779  0.39840391  0.52204939     0.43000
H474        H  0.51562115  0.36471168  0.57799957     0.41900
H475        H  0.00755816  0.21693029  0.62026983     0.41600
H476        H  0.53831569  0.14772867  0.58410842     0.39500
H477        H  0.58669177  0.12658473  0.95868705     0.42700
H478        H  0.02744563  0.12837584  0.91972671     0.37500
H479        H  0.02205978  0.22967833  0.85221676     0.43600
H480        H  0.41049645  0.36673337  0.92074918     0.40000
H481        H  0.06175962  0.16848024  0.58651470     0.44900
H482        H  0.52960850  0.18668788  0.87018572     0.43600
H483        H  0.93252580  0.40168475  0.92180087     0.43800
H484        H  0.97827874  0.37314139  0.57304266     0.44100
C485        C  0.46193887  0.99138017  0.06218045    -0.12800
C486        C  0.37724486  0.99931304  0.56200398     0.09300
C487        C  0.35395194  0.03956209  0.57042615    -0.12800
C488        C  0.37572188  0.07924229  0.56568176    -0.12800
C489        C  0.42119761  0.07785378  0.55471830     0.09300
C490        C  0.47484917  0.03314020  0.04994880    -0.12800
H491        H  0.48136700  0.96191292  0.05415683     0.13300
H492        H  0.31724299  0.04148512  0.57279658     0.13300
H493        H  0.35590395  0.11065689  0.56674969     0.13300
H494        H  0.50592221  0.03487178  0.03503759     0.13300
C495        C  0.07390562  0.48818615  0.54165820    -0.12800
C496        C  0.12153713  0.49873290  0.98015087     0.09300
C497        C  0.15098101  0.46766098  0.96400644    -0.12800
C498        C  0.13310879  0.43164171  0.94904625    -0.12800
C499        C  0.08579686  0.42847444  0.94878630     0.09300
C500        C  0.04872481  0.46547762  0.51891711    -0.12800
H501        H  0.05900496  0.49593235  0.56610614     0.13300
H502        H  0.18709813  0.46658195  0.96863182     0.13300
H503        H  0.15588054  0.40352773  0.94274669     0.13300
H504        H  0.01490848  0.45649040  0.52655791     0.13300
C505        C  0.24785277  0.38984752  0.00314895    -0.12800
C506        C  0.25753662  0.36266875  0.52939614     0.09300
C507        C  0.25346487  0.31756954  0.52385523    -0.12800
C508        C  0.27231648  0.30010599  0.49446678    -0.12800
C509        C  0.30049363  0.32676449  0.47393046     0.09300
C510        C  0.28243557  0.36755090  0.98487198    -0.12800
H511        H  0.24068209  0.42492220  0.99714129     0.13300
H512        H  0.24089665  0.29513221  0.54353973     0.13300
H513        H  0.27453543  0.26427538  0.49286750     0.13300
H514        H  0.30079606  0.38597494  0.96529618     0.13300
C515        C  0.23738575  0.09440057  0.97781073    -0.12800
C516        C  0.27680111  0.13363815  0.48130326     0.09300
C517        C  0.27759875  0.15953591  0.51011150    -0.12800
C518        C  0.23969835  0.18822374  0.51701535    -0.12800
C519        C  0.19676347  0.16280766  0.99289037     0.09300
C520        C  0.19945449  0.12402663  0.97454900    -0.12800
H521        H  0.23562061  0.06163809  0.96776342     0.13300
H522        H  0.30029836  0.14929844  0.53077646     0.13300
H523        H  0.23530268  0.20169610  0.54190430     0.13300
H524        H  0.17035563  0.11446780  0.96064792     0.13300
C525        C  0.28574947  0.26552065  0.60164973    -0.12700
C526        C  0.32464674  0.26403667  0.58798235    -0.14300
C527        C  0.19712257  0.26636728  0.60029946    -0.12700
C528        C  0.15845923  0.27128583  0.58831383    -0.14300
C529        C  0.22270528  0.34252761  0.65483227    -0.12700
C530        C  0.23261267  0.30531854  0.64266086    -0.14300
C531        C  0.24153777  0.17629617  0.64982589    -0.12700
C532        C  0.24005090  0.21665207  0.63976064    -0.14300
C533        C  0.34271517  0.23200205  0.76469535    -0.12800
C534        C  0.38718652  0.22724514  0.75165980     0.09300
C535        C  0.39995295  0.25588917  0.72418220    -0.12800
C536        C  0.37281479  0.29410196  0.71527478    -0.12800
C537        C  0.33209383  0.30336366  0.73310742     0.09300
C538        C  0.31518532  0.27011021  0.75551980    -0.12800
H539        H  0.33216475  0.21026175  0.78571593     0.13300
H540        H  0.43393848  0.25273326  0.71335643     0.13300
H541        H  0.38601909  0.31858437  0.69715838     0.13300
H542        H  0.28340083  0.27602839  0.76920679     0.13300
C543        C  0.14184182  0.20960022  0.77850222    -0.12800
C544        C  0.18170512  0.19695273  0.76093790     0.09300
C545        C  0.19855560  0.22648027  0.73549219    -0.12800
C546        C  0.17063190  0.26225910  0.72250323    -0.12800
C547        C  0.12647208  0.26929446  0.73546125     0.09300
C548        C  0.11480787  0.24641869  0.76632577    -0.12800
H549        H  0.12908594  0.18837604  0.79911943     0.13300
H550        H  0.23016696  0.21835508  0.72216506     0.13300
H551        H  0.18078653  0.27999255  0.69936785     0.13300
H552        H  0.08213979  0.25223033  0.77848631     0.13300
C553        C  0.08607012  0.37325349  0.82427601    -0.12800
C554        C  0.08043120  0.41725963  0.81076657     0.09300
C555        C  0.03671070  0.43893812  0.81114105    -0.12800
C556        C  0.99862819  0.41335376  0.81582336    -0.12800
C557        C  0.00521440  0.36673072  0.81936782     0.09300
C558        C  0.04797884  0.34857077  0.83034916    -0.12800
H559        H  0.11963626  0.35653802  0.82642147     0.13300
H560        H  0.03159445  0.47366948  0.80255438     0.13300
H561        H  0.96541106  0.42858493  0.80961141     0.13300
H562        H  0.05365217  0.31288233  0.83507975     0.13300
C563        C  0.46352367  0.05426740  0.67438163    -0.12800
C564        C  0.42016574  0.07645315  0.67278543     0.09300
C565        C  0.41549999  0.11956779  0.65736957    -0.12800
C566        C  0.45426919  0.14349022  0.65124273    -0.12800
C567        C  0.49616995  0.12516999  0.66368893     0.09300
C568        C  0.50191903  0.07879057  0.66913273    -0.12800
H569        H  0.46795780  0.02019630  0.68470708     0.13300
H570        H  0.38219251  0.13656333  0.65430628     0.13300
H571        H  0.44960704  0.17900031  0.64518408     0.13300
H572        H  0.53469347  0.06353253  0.67673369     0.13300
C573        C  0.30180691  0.22744608  0.89220320    -0.12700
C574        C  0.33984654  0.22039107  0.90502943    -0.14300
C575        C  0.21368494  0.23354088  0.88393846    -0.12700
C576        C  0.17298655  0.23527487  0.89375414    -0.14300
C577        C  0.26627078  0.28269252  0.85208497    -0.12700
C578        C  0.26708586  0.32335024  0.84321458    -0.14300
C579        C  0.27771256  0.15715342  0.83472572    -0.12700
C580        C  0.26911289  0.19485815  0.84593190    -0.14300
C581        C  0.26446270  0.73014118  0.36991537    -0.01900
O582        O  0.16954211  0.61467125  0.26790666    -0.74800
O583        O  0.23799999  0.63879718  0.24930499    -0.53700
C584        C  0.19689588  0.64563749  0.25956324     0.79000
O585        O  0.27769967  0.90143641  0.33853662    -0.57600
O586        O  0.23377603  0.86443966  0.30317682    -0.52400
C587        C  0.25957004  0.86474379  0.32889474     0.71000
O588        O  0.27832751  0.57153453  0.33031507    -0.73900
O589        O  0.30585218  0.61478558  0.28655218    -0.54500
C590        C  0.28907462  0.61056726  0.31673683     0.77000
O591        O  0.11411629  0.97814149  0.29493678    -0.59100
O592        O  0.14553897  0.90929816  0.28357452    -0.52200
C593        C  0.11460759  0.93550035  0.29688681     0.73600
Zr594      Zr  0.16601408  0.03105872  0.27189735     2.54700
O595        O  0.13691822  0.05777635  0.32581326    -0.79600
O596        O  0.09509479  0.05224894  0.24254623    -0.93000
Zr597      Zr  0.28000198  0.98721674  0.32134119     2.64700
O598        O  0.25853589  0.98397293  0.38139541    -0.98000
O599        O  0.35817078  0.98364670  0.34139140    -0.80100
O600        O  0.24131484  0.54775516  0.28646791    -0.83400
O601        O  0.20798821  0.96983856  0.30048800    -2.18100
O602        O  0.21602074  0.92065889  0.16313054    -0.66800
O603        O  0.20133781  0.87406052  0.20906870    -0.51400
C604        C  0.21071604  0.88042370  0.17727945     0.72000
O605        O  0.38238735  0.51448597  0.19225061    -0.59700
O606        O  0.35491967  0.58341480  0.20656786    -0.51700
C607        C  0.38279124  0.55712815  0.19037658     0.73800
O608        O  0.33569325  0.87718865  0.23174834    -0.71100
O609        O  0.26689883  0.85125473  0.24717340    -0.49800
C610        C  0.30867180  0.84549576  0.23802994     0.75200
O611        O  0.22937166  0.58958977  0.15590333    -0.66400
O612        O  0.27092402  0.62680825  0.19279114    -0.53600
C613        C  0.24709117  0.62627291  0.16604980     0.73500
Zr614      Zr  0.22331798  0.50467537  0.17558761     2.77500
O615        O  0.24954953  0.50465299  0.11719661    -0.97200
O616        O  0.14546441  0.51378190  0.15516553    -0.78000
Zr617      Zr  0.33595713  0.95851701  0.23331486     2.70100
O618        O  0.38832793  0.92202554  0.19359620    -0.79200
O619        O  0.40117417  0.95013092  0.27035925    -0.98300
Zr620      Zr  0.28443401  0.57305502  0.23875361     2.21500
Zr621      Zr  0.22003900  0.91769928  0.25690132     2.11100
O622        O  0.26611063  0.94325541  0.21070007    -2.47000
O623        O  0.29639053  0.52063935  0.19601337    -0.79000
O624        O  0.17623255  0.97769852  0.22840686    -0.71200
O625        O  0.32991014  0.51453560  0.26775838    -2.32200
O626        O  0.21118014  0.55683131  0.21882579    -2.28400
O627        O  0.29154824  0.93334213  0.27968273    -0.73000
H628        H  0.19165290  0.95759116  0.31981793     0.79000
H629        H  0.35853687  0.52487451  0.27482211     0.80100
H630        H  0.27687866  0.91985642  0.19627441     0.82300
H631        H  0.19429350  0.58318624  0.20991220     0.79900
H632        H  0.35376395  0.49888793  0.36289424     0.43000
H633        H  0.40863102  0.91753336  0.27107441     0.41900
H634        H  0.40641977  0.41218219  0.18600635     0.41600
H635        H  0.26554269  0.03539617  0.11988330     0.39500
H636        H  0.13795862  0.03960891  0.15541197     0.42700
H637        H  0.10623599  0.58132959  0.22209911     0.37500
H638        H  0.10228857  0.57319757  0.31091720     0.43600
H639        H  0.27751266  0.95860214  0.39165521     0.40000
H640        H  0.28294076  0.50209332  0.11992442     0.44900
H641        H  0.08497976  0.02407913  0.23401835     0.43600
H642        H  0.27104006  0.01069875  0.39058327     0.43800
H643        H  0.42624459  0.96309798  0.25687199     0.44100
N644        N  0.45562298  0.66325002  0.22891068    -0.36100
N645        N  0.96520338  0.76011904  0.29285629    -0.56600
N646        N  0.01918779  0.80214072  0.24175798    -0.36100
N647        N  0.03677067  0.72214499  0.20253162    -0.56600
C648        C  0.45605528  0.67439840  0.26166860     0.27500
C649        C  0.49885652  0.65038735  0.22042158     0.27500
C650        C  0.00732855  0.83817367  0.25986881     0.27500
C651        C  0.05467793  0.81272821  0.22138197     0.27500
C652        C  0.43731341  0.73279256  0.29987167     0.36100
C653        C  0.95845210  0.80124885  0.30390980     0.36100
C654        C  0.53733116  0.69351126  0.17742974     0.36100
C655        C  0.07006443  0.74677276  0.18994628     0.36100
C656        C  0.49888552  0.66347936  0.27515455    -0.21400
C657        C  0.52618774  0.64944192  0.24866757    -0.21400
C658        C  0.03239255  0.87343804  0.24718744    -0.21300
C659        C  0.06357089  0.85672905  0.22413049    -0.21300
C660        C  0.41100970  0.75097340  0.32589224    -0.22400
C661        C  0.92062248  0.80361053  0.32504865    -0.22400
C662        C  0.57652134  0.69543250  0.15786982    -0.22400
C663        C  0.09440576  0.72361732  0.16530723    -0.22400
C664        C  0.42252071  0.70318425  0.27655736    -0.17800
C665        C  0.51578171  0.65448812  0.18695481    -0.17800
C666        C  0.08616718  0.78107448  0.20835177    -0.17800
C667        C  0.98336671  0.83720791  0.29189593    -0.17800
H668        H  0.51057360  0.67035633  0.30017485     0.15200
H669        H  0.56274834  0.64336069  0.24913154     0.15200
H670        H  0.03075898  0.90730363  0.25487237     0.15200
H671        H  0.09125254  0.87415733  0.21224322     0.15200
H672        H  0.38063491  0.73775507  0.33723899     0.13400
H673        H  0.90542036  0.83305702  0.33640916     0.13400
H674        H  0.59271323  0.66884500  0.14367705     0.13400
H675        H  0.12571314  0.73289339  0.15295245     0.13400
H676        H  0.42908266  0.67076205  0.21193039     0.26700
H677        H  0.00882815  0.76998668  0.24577909     0.26700
C678        C  0.23899137  0.76034191  0.12343248    -0.01900
N679        N  0.22888583  0.01466069  0.05602058    -0.36100
N680        N  0.21392237  0.93407756  0.09315892    -0.56600
N681        N  0.34134888  0.89592711  0.06342367    -0.36100
N682        N  0.30190776  0.51552601  0.00726867    -0.56600
C683        C  0.18774951  0.02077963  0.07113187     0.27500
C684        C  0.22936409  0.57599618  0.00170514     0.27500
C685        C  0.30471395  0.88930189  0.08352921     0.27500
C686        C  0.31705335  0.45379521  0.06672973     0.27500
C687        C  0.16986793  0.94526413  0.08598157     0.36100
C688        C  0.22129647  0.89109508  0.08568059     0.36100
C689        C  0.30620087  0.55290388  0.98776652     0.36100
C690        C  0.34332460  0.50136543  0.01797685     0.36100
C691        C  0.17778852  0.06526867  0.07599813    -0.21400
C692        C  0.22487151  0.57828297  0.03657279    -0.21400
C693        C  0.31254606  0.90554266  0.11510728    -0.21300
C694        C  0.32683419  0.42119861  0.09206432    -0.21300
C695        C  0.14743489  0.90732554  0.07976424    -0.22400
C696        C  0.18058288  0.87385769  0.07783686    -0.22400
C697        C  0.35141006  0.55997505  0.98147228    -0.22400
C698        C  0.37523831  0.52675335  0.00051052    -0.22400
C699        C  0.15597601  0.98821888  0.07239341    -0.17800
C700        C  0.26945102  0.58384596  0.98331803    -0.17800
C701        C  0.34918390  0.48129469  0.05114052    -0.17800
C702        C  0.26264290  0.87650970  0.07109768    -0.17800
H703        H  0.14643193  0.08034014  0.08598725     0.15200
H704        H  0.24931550  0.58996903  0.05381863     0.15200
H705        H  0.28971649  0.90600720  0.13659053     0.15200
H706        H  0.35951036  0.41302086  0.10378531     0.15200
H707        H  0.11327433  0.90548936  0.07044594     0.13400
H708        H  0.17678871  0.84387494  0.06492068     0.13400
H709        H  0.36546218  0.58853692  0.96818829     0.13400
H710        H  0.41162644  0.52486932  0.00395699     0.13400
H711        H  0.24094766  0.98531207  0.04511583     0.26700
H712        H  0.34586599  0.88834280  0.03805685     0.26700
O713        O  0.09136588  0.72590492  0.40232406    -0.74800
O714        O  0.13080175  0.76748589  0.43755350    -0.53700
C715        C  0.12929820  0.74297579  0.41193142     0.79000
O716        O  0.38192245  0.84037356  0.97252223    -0.59400
O717        O  0.35744787  0.77007955  0.98098854    -0.52400
C718        C  0.35036597  0.81231633  0.97555437     0.71000
O719        O  0.01799619  0.88817682  0.45226239    -0.73900
O720        O  0.08844916  0.85733496  0.46545188    -0.54500
C721        C  0.06107372  0.89007230  0.45479540     0.77000
O722        O  0.42560856  0.71903024  0.40913635    -0.59100
O723        O  0.38470857  0.69365079  0.45519846    -0.52200
C724        C  0.38751314  0.70704889  0.42378724     0.73600
Zr725      Zr  0.50744251  0.73038866  0.42772871     2.54700
O726        O  0.50755655  0.75196413  0.36776006    -0.79600
O727        O  0.52015300  0.65358039  0.41134270    -0.93000
Zr728      Zr  0.96374182  0.83455828  0.46897702     2.64700
O729        O  0.93924386  0.86557516  0.41331501    -0.98000
O730        O  0.91983505  0.90722404  0.99861536    -0.80100
O731        O  0.02461896  0.79430604  0.44080884    -0.83400
O732        O  0.44640058  0.76807508  0.45691325    -2.18100
O733        O  0.48553750  0.61951305  0.03964571    -0.66800
O734        O  0.41435140  0.65062486  0.02866355    -0.51400
C735        C  0.44215127  0.61995471  0.04213199     0.72000
O736        O  0.07578357  0.76670305  0.08380349    -0.59700
O737        O  0.12073202  0.79332866  0.04041868    -0.51700
C738        C  0.11534932  0.77709892  0.07088231     0.73800
O739        O  0.40759426  0.77391501  0.08186704    -0.71100
O740        O  0.36717574  0.73695163  0.04438786    -0.49800
C741        C  0.36943989  0.75780311  0.07189158     0.75200
O742        O  0.12127481  0.66576126  0.50808704    -0.66400
O743        O  0.14766995  0.73403725  0.49274316    -0.53600
C744        C  0.15328119  0.69205646  0.49966416     0.73500
Zr745      Zr  0.04389045  0.67263867  0.01056126     2.77500
O746        O  0.08050107  0.64279209  0.06265684    -0.97200
O747        O  0.06002214  0.59822858  0.48715234    -0.78000
Zr748      Zr  0.99227501  0.77230169  0.06585231     2.70100
O749        O  0.98942697  0.73517615  0.12190135    -0.79200
O750        O  0.98952032  0.84251377  0.09439810    -0.98300
Zr751      Zr  0.07894812  0.77992071  0.48482941     2.21500
Zr752      Zr  0.42229236  0.72351580  0.99903305     2.11100
O753        O  0.47655519  0.70982940  0.04315121    -2.47000
O754        O  0.05446440  0.74031356  0.03444491    -0.79000
O755        O  0.48860366  0.68181537  0.47544037    -0.71200
O756        O  0.01558277  0.82345308  0.02146939    -2.32200
O757        O  0.06018185  0.70948323  0.46566158    -2.28400
O758        O  0.43852544  0.79433096  0.01910378    -0.73000
H759        H  0.42155412  0.77680167  0.44202781     0.79000
H760        H  0.02486520  0.84897887  0.03285708     0.80100
H761        H  0.46495843  0.69374616  0.06290954     0.82300
H762        H  0.08577892  0.69254986  0.45643235     0.79900
H763        H  0.90681036  0.89756456  0.02091160     0.43000
H764        H  0.45443001  0.85921499  0.09128631     0.41900
H765        H  0.99765964  0.75801536  0.13757489     0.41600
H766        H  0.55081814  0.65669150  0.08743303     0.39500
H767        H  0.58168533  0.61839661  0.46759789     0.42700
H768        H  0.03550914  0.64471775  0.38794929     0.37500
H769        H  0.02606405  0.72336675  0.35149350     0.43600
H770        H  0.45372679  0.84431242  0.40488228     0.40000
H771        H  0.10203363  0.61850773  0.05529331     0.44900
H772        H  0.49847147  0.65071251  0.39270348     0.43600
H773        H  0.95848099  0.84888417  0.39687023     0.43800
H774        H  0.02183374  0.84886116  0.09729800     0.44100
C775        C  0.45950172  0.48951329  0.56022399    -0.12800
C776        C  0.37652816  0.50632140  0.07375153     0.09300
C777        C  0.35586812  0.54794087  0.08192686    -0.12800
C778        C  0.37885317  0.58635516  0.07458210    -0.12800
C779        C  0.42339488  0.58248308  0.06184161     0.09300
C780        C  0.47343766  0.53157629  0.54992756    -0.12800
H781        H  0.47779052  0.46041924  0.55046014     0.13300
H782        H  0.31940886  0.55204155  0.08540196     0.13300
H783        H  0.36023452  0.61854724  0.07493276     0.13300
H784        H  0.50421022  0.53373301  0.53475146     0.13300
C785        C  0.07778439  0.98602395  0.04893700    -0.12800
C786        C  0.11843917  0.00279971  0.48099330     0.09300
C787        C  0.14572514  0.97345108  0.46151189    -0.12800
C788        C  0.12603022  0.93854606  0.44636457    -0.12800
C789        C  0.07901486  0.93458646  0.44962924     0.09300
C790        C  0.05223779  0.96338994  0.02635202    -0.12800
H791        H  0.06274833  0.99486822  0.07310381     0.13300
H792        H  0.18229386  0.97175436  0.46406854     0.13300
H793        H  0.14790355  0.91131313  0.43726488     0.13300
H794        H  0.01812655  0.95533854  0.03388421     0.13300
C795        C  0.24180114  0.87776449  0.47873408    -0.12800
C796        C  0.26075592  0.86299767  0.03551229     0.09300
C797        C  0.25577109  0.81845903  0.02855035    -0.12800
C798        C  0.27420664  0.80239464  0.99855469    -0.12800
C799        C  0.30266900  0.82980300  0.97889256     0.09300
C800        C  0.27998058  0.85607411  0.46379757    -0.12800
H801        H  0.23350746  0.91217318  0.47076000     0.13300
H802        H  0.24290780  0.79523271  0.04751496     0.13300
H803        H  0.27608726  0.76671301  0.99593129     0.13300
H804        H  0.29915329  0.87386168  0.44433986     0.13300
C805        C  0.24328682  0.60727704  0.47592746    -0.12800
C806        C  0.27471382  0.63056360  0.97211649     0.09300
C807        C  0.27714859  0.65925770  0.99916913    -0.12800
C808        C  0.23854661  0.68653543  0.00689686    -0.12800
C809        C  0.19902489  0.67148293  0.49520776     0.09300
C810        C  0.20516054  0.63679184  0.47291976    -0.12800
H811        H  0.24369578  0.57679864  0.46233522     0.13300
H812        H  0.30221922  0.65184954  0.01884668     0.13300
H813        H  0.23586098  0.70203825  0.03112839     0.13300
H814        H  0.17827387  0.62977083  0.45581463     0.13300
C815        C  0.28551196  0.76338355  0.10453397    -0.12700
C816        C  0.32482758  0.76283174  0.09158602    -0.14300
C817        C  0.19683886  0.76343742  0.10182616    -0.12700
C818        C  0.15820057  0.76797930  0.08983425    -0.14300
C819        C  0.22079620  0.83822208  0.15826841    -0.12700
C820        C  0.23105262  0.80143231  0.14546502    -0.14300
C821        C  0.23986160  0.67211685  0.14895662    -0.12700
C822        C  0.23888044  0.71288175  0.14034804    -0.14300
C823        C  0.34118606  0.72871826  0.26930996    -0.12800
C824        C  0.38512070  0.72406330  0.25527225     0.09300
C825        C  0.39705388  0.75324239  0.22788326    -0.12800
C826        C  0.36877608  0.79059058  0.21887107    -0.12800
C827        C  0.32840716  0.79937271  0.23722324     0.09300
C828        C  0.31279945  0.76629164  0.26033149    -0.12800
H829        H  0.33156296  0.70689278  0.29050059     0.13300
H830        H  0.43100413  0.75102955  0.21687193     0.13300
H831        H  0.38093693  0.81506978  0.20028764     0.13300
H832        H  0.28137150  0.77198027  0.27451015     0.13300
C833        C  0.13847009  0.70496843  0.27499083    -0.12800
C834        C  0.17855251  0.69233931  0.25754841     0.09300
C835        C  0.19499251  0.72144498  0.23168172    -0.12800
C836        C  0.16682970  0.75686758  0.21850265    -0.12800
C837        C  0.12298276  0.76432760  0.23176955     0.09300
C838        C  0.11115305  0.74153228  0.26255874    -0.12800
H839        H  0.12579660  0.68385799  0.29569961     0.13300
H840        H  0.22651870  0.71321494  0.21829100     0.13300
H841        H  0.17640007  0.77399114  0.19506281     0.13300
H842        H  0.07787256  0.74713265  0.27404725     0.13300
C843        C  0.08254675  0.87035947  0.32728127    -0.12800
C844        C  0.07689055  0.91497476  0.31531414     0.09300
C845        C  0.03294316  0.93622617  0.31513417    -0.12800
C846        C  0.99526086  0.90986541  0.31656637    -0.12800
C847        C  0.00273947  0.86329532  0.31826909     0.09300
C848        C  0.04484741  0.84478357  0.33018439    -0.12800
H849        H  0.11618047  0.85383768  0.32966009     0.13300
H850        H  0.02779399  0.97137364  0.30779540     0.13300
H851        H  0.96234664  0.92503984  0.30958233     0.13300
H852        H  0.05113258  0.80894898  0.33292026     0.13300
C853        C  0.46345609  0.55604881  0.17127730    -0.12800
C854        C  0.41949518  0.57690500  0.17001810     0.09300
C855        C  0.41359741  0.62041643  0.15540735    -0.12800
C856        C  0.45152364  0.64582520  0.14989136    -0.12800
C857        C  0.49406956  0.62840995  0.16178024     0.09300
C858        C  0.50105260  0.58196289  0.16670233    -0.12800
H859        H  0.46888203  0.52180766  0.18103303     0.13300
H860        H  0.37982972  0.63647268  0.15253618     0.13300
H861        H  0.44567260  0.68136708  0.14450249     0.13300
H862        H  0.53413085  0.56744971  0.17439329     0.13300
C863        C  0.30491759  0.72158407  0.39341612    -0.12700
C864        C  0.34318540  0.71353873  0.40588788    -0.14300
C865        C  0.21612720  0.72960190  0.38590314    -0.12700
C866        C  0.17523039  0.73342925  0.39528280    -0.14300
C867        C  0.26849915  0.77796275  0.35417137    -0.12700
C868        C  0.26799071  0.81877183  0.34566958    -0.14300
C869        C  0.27889201  0.65337451  0.33441590    -0.12700
C870        C  0.27060808  0.69046586  0.34685684    -0.14300
C871        C  0.26105388  0.73755606  0.86797450    -0.01900
O872        O  0.16843030  0.61691915  0.76735969    -0.74800
O873        O  0.23723387  0.64164061  0.75011137    -0.53700
C874        C  0.19562236  0.64815791  0.75934657     0.79000
O875        O  0.27932583  0.90608078  0.83345656    -0.57600
O876        O  0.23296876  0.87090073  0.79873257    -0.52400
C877        C  0.25963061  0.87019310  0.82402576     0.71000
O878        O  0.27312257  0.57523928  0.83216996    -0.73900
O879        O  0.30338299  0.61788775  0.78916285    -0.54500
C880        C  0.28446401  0.61426596  0.81869516     0.77000
O881        O  0.11930442  0.98403391  0.79429261    -0.59100
O882        O  0.14813855  0.91582042  0.77899038    -0.52200
C883        C  0.11911758  0.94135500  0.79482894     0.73600
Zr884      Zr  0.16867988  0.03772222  0.76782255     2.54700
O885        O  0.12787683  0.06765102  0.81668288    -0.79600
O886        O  0.10202864  0.05769890  0.73321095    -0.93000
Zr887      Zr  0.28177946  0.99195497  0.81755550     2.64700
O888        O  0.24891439  0.98904775  0.87472439    -0.98000
O889        O  0.35557794  0.98777199  0.84503661    -0.80100
O890        O  0.24049666  0.55040773  0.78796983    -0.83400
O891        O  0.21030764  0.97602819  0.79603700    -2.18100
O892        O  0.21894789  0.92712162  0.65903384    -0.66800
O893        O  0.20228294  0.88107905  0.70479232    -0.51400
C894        C  0.21246413  0.88698773  0.67316777     0.72000
O895        O  0.38276053  0.51422941  0.69637644    -0.59700
O896        O  0.35742147  0.58381607  0.71083706    -0.51700
C897        C  0.38497750  0.55655937  0.69516767     0.73800
O898        O  0.33725561  0.88280931  0.72796814    -0.71100
O899        O  0.26826528  0.85743089  0.74326201    -0.49800
C900        C  0.31007679  0.85124498  0.73443621     0.75200
O901        O  0.22982739  0.59247166  0.65718517    -0.66400
O902        O  0.27089306  0.63004941  0.69413488    -0.53600
C903        C  0.24700337  0.62953049  0.66728928     0.73500
Zr904      Zr  0.22592298  0.50700217  0.67702943     2.77500
O905        O  0.26175629  0.50684993  0.62119527    -0.97200
O906        O  0.15045478  0.51432299  0.65214839    -0.78000
Zr907      Zr  0.33812753  0.96435718  0.72931867     2.70100
O908        O  0.39213030  0.93002135  0.68968144    -0.79200
O909        O  0.39969849  0.95231767  0.76955622    -0.98300
Zr910      Zr  0.28454301  0.57599684  0.74065968     2.21500
Zr911      Zr  0.22220893  0.92433069  0.75221517     2.11100
O912        O  0.26900829  0.94875782  0.70571150    -2.47000
O913        O  0.29824384  0.52239036  0.69890153    -0.79000
O914        O  0.17779410  0.98438725  0.72415834    -0.71200
O915        O  0.32911585  0.51765522  0.77092294    -2.32200
O916        O  0.21198736  0.55917024  0.71983738    -2.28400
O917        O  0.29384023  0.93860372  0.77549437    -0.73000
H918        H  0.19464332  0.96352201  0.81563607     0.79000
H919        H  0.35762062  0.52831255  0.77816820     0.80100
H920        H  0.28007651  0.92559835  0.69121936     0.82300
H921        H  0.19486861  0.58528206  0.71068159     0.79900
H922        H  0.36246897  0.46308261  0.85474453     0.43000
H923        H  0.41320697  0.92245076  0.76429437     0.41900
H924        H  0.42288352  0.43017205  0.69831941     0.41600
H925        H  0.22961004  0.99902776  0.60604716     0.39500
H926        H  0.14715039  0.04446764  0.64118717     0.42700
H927        H  0.10267372  0.53425023  0.71542257     0.37500
H928        H  0.15718141  0.55919698  0.83596276     0.43600
H929        H  0.24430863  0.95712072  0.88025741     0.40000
H930        H  0.29358896  0.49673962  0.62622005     0.44900
H931        H  0.07595402  0.05703241  0.74934878     0.43600
H932        H  0.27399898  0.99616393  0.88964198     0.43800
H933        H  0.42269039  0.97322166  0.76135173     0.44100
N934        N  0.45448232  0.66339931  0.73620942    -0.36100
N935        N  0.96895553  0.76666670  0.78781522    -0.56600
N936        N  0.02066397  0.81068422  0.73595361    -0.36100
N937        N  0.03868704  0.72725537  0.69985384    -0.56600
C938        C  0.44990296  0.67593446  0.76858913     0.27500
C939        C  0.49827295  0.64809228  0.73193164     0.27500
C940        C  0.01225485  0.84540498  0.75607024     0.27500
C941        C  0.05802825  0.81937228  0.71694222     0.27500
C942        C  0.42760863  0.73733317  0.80341633     0.36100
C943        C  0.96267584  0.80774305  0.79918892     0.36100
C944        C  0.54631538  0.68379463  0.69054439     0.36100
C945        C  0.07012126  0.75302031  0.68579044     0.36100
C946        C  0.49006807  0.66426947  0.78593736    -0.21400
C947        C  0.52104183  0.64811009  0.76239410    -0.21400
C948        C  0.04058885  0.87906405  0.74540031    -0.21300
C949        C  0.07081587  0.86172650  0.72199586    -0.21300
C950        C  0.39778069  0.76412918  0.82242764    -0.22400
C951        C  0.92645422  0.80962215  0.82188951    -0.22400
C952        C  0.57929057  0.68595254  0.66532714    -0.22400
C953        C  0.09342739  0.73044002  0.66040733    -0.22400
C954        C  0.41508890  0.70664489  0.77993580    -0.17800
C955        C  0.52032292  0.64787940  0.69994116    -0.17800
C956        C  0.08794139  0.78609871  0.70432732    -0.17800
C957        C  0.98895141  0.84322426  0.78830004    -0.17800
H958        H  0.49788483  0.67180242  0.81170480     0.15200
H959        H  0.55711363  0.64091932  0.76637633     0.15200
H960        H  0.04205120  0.91171779  0.75506838     0.15200
H961        H  0.10069354  0.87719680  0.71173767     0.15200
H962        H  0.36307812  0.75760726  0.82948793     0.13400
H963        H  0.91259773  0.83862215  0.83455730     0.13400
H964        H  0.59065563  0.65986176  0.64870892     0.13400
H965        H  0.12404039  0.74022934  0.64739523     0.13400
H966        H  0.43113912  0.67141956  0.71687855     0.26700
H967        H  0.00609621  0.78014082  0.73770044     0.26700
C968        C  0.23747696  0.76373868  0.62241180    -0.01900
N969        N  0.19564600  0.05601965  0.49197018    -0.36100
N970        N  0.17950103  0.95808584  0.54936103    -0.56600
N971        N  0.29611127  0.92016752  0.53161294    -0.36100
N972        N  0.32020512  0.49848712  0.53716438    -0.56600
C973        C  0.16780311  0.04351133  0.51775974     0.27500
C974        C  0.24211069  0.55873992  0.54623494     0.27500
C975        C  0.26253089  0.90464868  0.55154781     0.27500
C976        C  0.36381576  0.42344876  0.57445219     0.27500
C977        C  0.13807252  0.97408362  0.53855712     0.36100
C978        C  0.18086059  0.91350757  0.54681906     0.36100
C979        C  0.31412015  0.53663348  0.51792167     0.36100
C980        C  0.36225300  0.48074971  0.53035790     0.36100
C981        C  0.18304331  0.05809993  0.54818490    -0.21400
C982        C  0.21201025  0.58929452  0.56174192    -0.21400
C983        C  0.27070217  0.91282568  0.58492158    -0.21300
C984        C  0.34945134  0.42460217  0.60796124    -0.21300
C985        C  0.11037487  0.93846305  0.53607230    -0.22400
C986        C  0.13827191  0.90028508  0.53947377    -0.22400
C987        C  0.35133827  0.54234014  0.49670802    -0.22400
C988        C  0.38211322  0.50701658  0.50481985    -0.22400
C989        C  0.13558672  0.01151636  0.51508992    -0.17800
C990        C  0.27912271  0.56902024  0.52451661    -0.17800
C991        C  0.38650987  0.45743364  0.55706603    -0.17800
C992        C  0.22181495  0.89006257  0.53910132    -0.17800
H993        H  0.16900500  0.05126139  0.57332366     0.15200
H994        H  0.21568872  0.62423285  0.56503525     0.15200
H995        H  0.24900105  0.90502942  0.60613490     0.15200
H996        H  0.36223438  0.44452345  0.62738757     0.15200
H997        H  0.07636484  0.93973017  0.52595185     0.13400
H998        H  0.12967479  0.86786830  0.53235534     0.13400
H999        H  0.35762140  0.57105729  0.47996295     0.13400
H1000       H  0.41706631  0.50401598  0.49596767     0.13400
H1001       H  0.19445870  0.04782798  0.46658045     0.26700
H1002       H  0.29767858  0.92229147  0.50521212     0.26700
O1003       O  0.08953525  0.74277045  0.90224451    -0.74800
O1004       O  0.12859965  0.78135027  0.93974527    -0.53700
C1005       C  0.12734313  0.75886524  0.91275644     0.79000
O1006       O  0.37518096  0.83295063  0.47317853    -0.59400
O1007       O  0.35698458  0.76139914  0.48717887    -0.52400
C1008       C  0.34645963  0.80227614  0.47820868     0.71000
O1009       O  0.01172940  0.89963990  0.98590175    -0.73900
O1010       O  0.08436231  0.86931756  0.98243528    -0.54500
C1011       C  0.05525266  0.90235462  0.98639127     0.77000
O1012       O  0.42385518  0.71964935  0.90555503    -0.59100
O1013       O  0.38142765  0.69764879  0.95175187    -0.52200
C1014       C  0.38490417  0.71042000  0.92029903     0.73600
Zr1015     Zr  0.50691407  0.72582459  0.92404820     2.54700
O1016       O  0.50650736  0.75158059  0.86483292    -0.79600
O1017       O  0.51596873  0.65045620  0.90409719    -0.93000
Zr1018     Zr  0.95966710  0.84015419  0.97864615     2.64700
O1019       O  0.94920724  0.87576009  0.92208053    -0.98000
O1020       O  0.94055743  0.90112852  0.49878099    -0.80100
O1021       O  0.02149233  0.80754949  0.94619767    -0.83400
O1022       O  0.44804304  0.76871612  0.95174455    -2.18100
O1023       O  0.49873697  0.61775109  0.53624971    -0.66800
O1024       O  0.42433365  0.64190996  0.52904763    -0.51400
C1025       C  0.45613332  0.61268408  0.53906411     0.72000
O1026       O  0.07560630  0.77387241  0.57982499    -0.59700
O1027       O  0.12307441  0.78925182  0.53487498    -0.51700
C1028       C  0.11605706  0.77996412  0.56654654     0.73800
O1029       O  0.40587580  0.77372068  0.58403247    -0.71100
O1030       O  0.36940252  0.73025748  0.54864271    -0.49800
C1031       C  0.36919139  0.75509887  0.57422699     0.75200
O1032       O  0.12672826  0.67561761  0.00200721    -0.66400
O1033       O  0.14822173  0.74716703  0.99294271    -0.53600
C1034       C  0.15639910  0.70493543  0.99533968     0.73500
Zr1035     Zr  0.03758413  0.66737622  0.51427878     2.77500
O1036       O  0.06401767  0.63752615  0.56961926    -0.97200
O1037       O  0.06627334  0.60759036  0.97873794    -0.78000
Zr1038     Zr  0.99263714  0.77844974  0.56046866     2.70100
O1039       O  0.98916904  0.75346163  0.62012643    -0.79200
O1040       O  0.99026483  0.85453799  0.57944173    -0.98300
Zr1041     Zr  0.07716228  0.78947047  0.98912926     2.21500
Zr1042     Zr  0.42510360  0.71856818  0.50329856     2.11100
O1043       O  0.48046238  0.70711506  0.54712612    -2.47000
O1044       O  0.05335459  0.73747610  0.53331685    -0.79000
O1045       O  0.48257801  0.68043379  0.97235218    -0.71200
O1046       O  0.01932098  0.82284527  0.51246060    -2.32200
O1047       O  0.06131336  0.72141261  0.96492750    -2.28400
O1048       O  0.43667055  0.79005747  0.52419401    -0.73000
H1049       H  0.42359170  0.77901363  0.93681048     0.79000
H1050       H  0.02994813  0.85074874  0.51944237     0.80100
H1051       H  0.47061367  0.68835779  0.56612829     0.82300
H1052       H  0.08698646  0.70644986  0.95439620     0.79900
H1053       H  0.91524647  0.91533758  0.48505724     0.43000
H1054       H  0.51194899  0.86362441  0.59072076     0.41900
H1055       H  0.00396209  0.77663951  0.63225156     0.41600
H1056       H  0.58761241  0.67781502  0.58312038     0.39500
H1057       H  0.57834484  0.58239749  0.00734454     0.42700
H1058       H  0.98872571  0.66403156  0.88252735     0.37500
H1059       H  0.01552463  0.75011373  0.85199140     0.43600
H1060       H  0.45124482  0.89612753  0.91209565     0.40000
H1061       H  0.09562962  0.64669255  0.57118704     0.44900
H1062       H  0.53300400  0.63308060  0.92232516     0.43600
H1063       H  0.91922764  0.89243311  0.92332851     0.43800
H1064       H  0.98694414  0.85145134  0.60447201     0.44100
C1065       C  0.42392638  0.50208049  0.07027571    -0.12800
C1066       C  0.41630914  0.48598493  0.57489844     0.09300
C1067       C  0.39451260  0.52418564  0.58874979    -0.12800
C1068       C  0.40728505  0.56638731  0.57731254    -0.12800
C1069       C  0.44481677  0.56986038  0.55539627     0.09300
C1070       C  0.44766362  0.54064265  0.06423011    -0.12800
H1071       H  0.44068759  0.47001976  0.06523873     0.13300
H1072       H  0.36198338  0.52202284  0.60162488     0.13300
H1073       H  0.38651201  0.59576731  0.58381767     0.13300
H1074       H  0.48291821  0.53722749  0.05618996     0.13300
C1075       C  0.07131160  0.00550919  0.47619237    -0.12800
C1076       C  0.12453252  0.98934207  0.04311986     0.09300
C1077       C  0.14327534  0.97718812  0.01155180    -0.12800
C1078       C  0.11804212  0.95384309  0.98943575    -0.12800
C1079       C  0.07337358  0.94361868  0.99812123     0.09300
C1080       C  0.05143273  0.97153648  0.45992700    -0.12800
H1081       H  0.04958651  0.02833039  0.49032937     0.13300
H1082       H  0.17929993  0.97936795  0.00634121     0.13300
H1083       H  0.13517180  0.93905924  0.96786258     0.13300
H1084       H  0.01476305  0.97012839  0.46165500     0.13300
C1085       C  0.27218390  0.89303703  0.00860299    -0.12800
C1086       C  0.22533366  0.86048946  0.51014002     0.09300
C1087       C  0.23468056  0.81535547  0.51861512    -0.12800
C1088       C  0.27042946  0.79239486  0.50253054    -0.12800
C1089       C  0.29738332  0.81520083  0.47852145     0.09300
C1090       C  0.29421938  0.87616923  0.97997034    -0.12800
H1091       H  0.27281413  0.92831944  0.01252391     0.13300
H1092       H  0.22127459  0.80069529  0.54176151     0.13300
H1093       H  0.28219215  0.76028226  0.51375944     0.13300
H1094       H  0.31268932  0.89872981  0.96332352     0.13300
C1095       C  0.24536159  0.64394150  0.94544233    -0.12800
C1096       C  0.27293163  0.61061166  0.50310039     0.09300
C1097       C  0.27306128  0.65136099  0.51914824    -0.12800
C1098       C  0.23504368  0.68161716  0.51579457    -0.12800
C1099       C  0.20149392  0.68848582  0.98493052     0.09300
C1100       C  0.20631894  0.67007982  0.95301822    -0.12800
H1101       H  0.24525926  0.62463926  0.92295298     0.13300
H1102       H  0.29649073  0.65503297  0.53964119     0.13300
H1103       H  0.23070385  0.70858770  0.53295202     0.13300
H1104       H  0.17813640  0.67195059  0.93554785     0.13300
C1105       C  0.28381595  0.76509205  0.60357893    -0.12700
C1106       C  0.32351157  0.76248774  0.59168204    -0.14300
C1107       C  0.19574341  0.76771330  0.60030031    -0.12700
C1108       C  0.15799859  0.77340265  0.58690357    -0.14300
C1109       C  0.22164317  0.84409919  0.65469636    -0.12700
C1110       C  0.23073579  0.80622948  0.64318614    -0.14300
C1111       C  0.23899822  0.67564381  0.64988584    -0.12700
C1112       C  0.23701297  0.71639427  0.64036041    -0.14300
C1113       C  0.33553816  0.73236089  0.76501489    -0.12800
C1114       C  0.38147690  0.72733850  0.75523784     0.09300
C1115       C  0.39818398  0.75707702  0.72988375    -0.12800
C1116       C  0.37248847  0.79574670  0.71977749    -0.12800
C1117       C  0.32943810  0.80477550  0.73437449     0.09300
C1118       C  0.30950470  0.77100619  0.75462141    -0.12800
H1119       H  0.32204238  0.71002617  0.78452024     0.13300
H1120       H  0.43363948  0.75426068  0.72203890     0.13300
H1121       H  0.38830524  0.82067885  0.70348734     0.13300
H1122       H  0.27597216  0.77670224  0.76582560     0.13300
C1123       C  0.13487048  0.70672120  0.77189877    -0.12800
C1124       C  0.17660564  0.69467698  0.75644635     0.09300
C1125       C  0.19478321  0.72417553  0.73158240    -0.12800
C1126       C  0.16748835  0.75964557  0.71739698    -0.12800
C1127       C  0.12262169  0.76682918  0.72868953     0.09300
C1128       C  0.10814554  0.74305921  0.75834594    -0.12800
H1129       H  0.12080846  0.68538669  0.79189489     0.13300
H1130       H  0.22758333  0.71649140  0.71979727     0.13300
H1131       H  0.17920955  0.77769146  0.69493866     0.13300
H1132       H  0.07377934  0.74821985  0.76805957     0.13300
C1133       C  0.08996774  0.87411096  0.82401745    -0.12800
C1134       C  0.08323438  0.91959890  0.81458343     0.09300
C1135       C  0.03908271  0.94002551  0.81634248    -0.12800
C1136       C  0.00189992  0.91305674  0.81676056    -0.12800
C1137       C  0.01003436  0.86673504  0.81545833     0.09300
C1138       C  0.05289104  0.84763521  0.82533949    -0.12800
H1139       H  0.12390198  0.85797140  0.82475308     0.13300
H1140       H  0.03320795  0.97559506  0.81100238     0.13300
H1141       H  0.96849001  0.92834851  0.81149335     0.13300
H1142       H  0.05989099  0.81183573  0.82534820     0.13300
C1143       C  0.46675920  0.55130812  0.68072587    -0.12800
C1144       C  0.42398023  0.57413273  0.67666065     0.09300
C1145       C  0.42134494  0.61749167  0.66178281    -0.12800
C1146       C  0.46074118  0.64099237  0.65881875    -0.12800
C1147       C  0.50078726  0.62197071  0.67381093     0.09300
C1148       C  0.50562013  0.57553562  0.67908339    -0.12800
H1149       H  0.46969751  0.51697643  0.69067424     0.13300
H1150       H  0.38863619  0.63498331  0.65698399     0.13300
H1151       H  0.45688869  0.67660975  0.65329195     0.13300
H1152       H  0.53710173  0.55969903  0.68870164     0.13300
C1153       C  0.30225689  0.72894432  0.89073976    -0.12700
C1154       C  0.34067390  0.71940347  0.90256995    -0.14300
C1155       C  0.21327579  0.74150416  0.88513964    -0.12700
C1156       C  0.17309987  0.74893570  0.89557096    -0.14300
C1157       C  0.26668591  0.78380555  0.85015019    -0.12700
C1158       C  0.26711920  0.82420132  0.84074808    -0.14300
C1159       C  0.27288951  0.65776892  0.83544497    -0.12700
C1160       C  0.26478879  0.69576158  0.84667224    -0.14300
C1161       C  0.76291609  0.23123632  0.36791598    -0.01900
O1162       O  0.66227165  0.11373627  0.26322673    -0.74800
O1163       O  0.73125491  0.13737582  0.24582487    -0.53700
C1164       C  0.68987077  0.14445070  0.25513768     0.79000
O1165       O  0.77612331  0.40256201  0.33792784    -0.57600
O1166       O  0.73294293  0.36595698  0.30187689    -0.52400
C1167       C  0.75840172  0.36596508  0.32774254     0.71000
O1168       O  0.76894854  0.07185915  0.33012447    -0.73900
O1169       O  0.79756474  0.11364086  0.28591971    -0.54500
C1170       C  0.78090947  0.11025077  0.31612273     0.77000
O1171       O  0.61363432  0.47454669  0.29412460    -0.59100
O1172       O  0.64640080  0.40691582  0.28132928    -0.52200
C1173       C  0.61506082  0.43187184  0.29524318     0.73600
Zr1174     Zr  0.66244162  0.53037250  0.27068509     2.54700
O1175       O  0.62130370  0.56202184  0.31894225    -0.79600
O1176       O  0.59459186  0.54822287  0.23674910    -0.93000
Zr1177     Zr  0.77594611  0.48874498  0.32202490     2.64700
O1178       O  0.74407100  0.48254423  0.37943040    -0.98000
O1179       O  0.84873648  0.48692335  0.35088953    -0.80100
O1180       O  0.73184736  0.04814573  0.28480164    -0.83400
O1181       O  0.70530269  0.47035303  0.29982846    -2.18100
O1182       O  0.71677857  0.42185856  0.16249681    -0.66800
O1183       O  0.70319871  0.37481166  0.20831256    -0.51400
C1184       C  0.71217914  0.38136360  0.17651816     0.72000
O1185       O  0.87633100  0.01147529  0.19424763    -0.59700
O1186       O  0.85091969  0.08055313  0.20965996    -0.51700
C1187       C  0.87831610  0.05390841  0.19350397     0.73800
O1188       O  0.83518182  0.38122997  0.23162627    -0.71100
O1189       O  0.76643708  0.35397384  0.24502565    -0.49800
C1190       C  0.80825914  0.34906139  0.23630306     0.75200
O1191       O  0.72971464  0.08800462  0.15336933    -0.66400
O1192       O  0.76983115  0.12479795  0.19133507    -0.53600
C1193       C  0.74706003  0.12474307  0.16404461     0.73500
Zr1194     Zr  0.72351701  0.00267431  0.17333088     2.77500
O1195       O  0.75988261  0.00459326  0.11780775    -0.97200
O1196       O  0.65031874  0.00748570  0.14482263    -0.78000
Zr1197     Zr  0.83513456  0.46284119  0.23392144     2.70100
O1198       O  0.89076765  0.42933319  0.19484471    -0.79200
O1199       O  0.90078608  0.45733799  0.27084015    -0.98300
Zr1200     Zr  0.77806801  0.07135059  0.23813423     2.21500
Zr1201     Zr  0.72035017  0.41940907  0.25581447     2.11100
O1202       O  0.76714748  0.44481723  0.20969355    -2.47000
O1203       O  0.78823326  0.01520934  0.20208021    -0.79000
O1204       O  0.67503084  0.47780485  0.22689899    -0.71200
O1205       O  0.82202608  0.01447182  0.26981869    -2.32200
O1206       O  0.70623512  0.05623453  0.21489499    -2.28400
O1207       O  0.79115261  0.43565124  0.27994848    -0.73000
H1208       H  0.68907648  0.45720915  0.31888811     0.79000
H1209       H  0.84985419  0.02560394  0.27776400     0.80100
H1210       H  0.77850337  0.42207762  0.19491716     0.82300
H1211       H  0.68985866  0.08245440  0.20513728     0.79900
H1212       H  0.85306404  0.01757850  0.34490257     0.43000
H1213       H  0.88797179  0.45465215  0.29415766     0.41900
H1214       H  0.86778382  0.91903018  0.16856417     0.41600
H1215       H  0.76588593  0.53842250  0.11997814     0.39500
H1216       H  0.63615211  0.53944904  0.15798403     0.42700
H1217       H  0.60352387  0.03545740  0.20406466     0.37500
H1218       H  0.64139912  0.06641685  0.32669332     0.43600
H1219       H  0.74645337  0.51239202  0.38855402     0.40000
H1220       H  0.73880285  0.98987366  0.10323035     0.44900
H1221       H  0.60190747  0.57480367  0.22226551     0.43600
H1222       H  0.71102760  0.47998979  0.37629701     0.43800
H1223       H  0.91441084  0.42709975  0.26698443     0.44100
N1224       N  0.95140615  0.16442213  0.22974060    -0.36100
N1225       N  0.46460258  0.25574888  0.28434560    -0.56600
N1226       N  0.51432311  0.30102818  0.23202567    -0.36100
N1227       N  0.53348503  0.21716516  0.19621672    -0.56600
C1228       C  0.94993609  0.17688517  0.26219745     0.27500
C1229       C  0.99533777  0.15312741  0.22241412     0.27500
C1230       C  0.50678153  0.33510409  0.25292041     0.27500
C1231       C  0.55005935  0.31074818  0.21157788     0.27500
C1232       C  0.92758418  0.23742596  0.29819080     0.36100
C1233       C  0.45995897  0.29588224  0.29736262     0.36100
C1234       C  0.03639464  0.18888369  0.17676337     0.36100
C1235       C  0.56504564  0.24281242  0.18207760     0.36100
C1236       C  0.99257265  0.16820082  0.27672180    -0.21400
C1237       C  0.02158553  0.15473579  0.25100404    -0.21400
C1238       C  0.53389280  0.36947973  0.24157696    -0.21300
C1239       C  0.56225809  0.35336548  0.21651370    -0.21300
C1240       C  0.89700560  0.26454096  0.31641594    -0.22400
C1241       C  0.42529980  0.29672836  0.32144986    -0.22400
C1242       C  0.07568532  0.18616404  0.15730070    -0.22400
C1243       C  0.58991917  0.21915237  0.15799715    -0.22400
C1244       C  0.91510403  0.20613573  0.27506943    -0.17800
C1245       C  0.01287304  0.15254261  0.18910660    -0.17800
C1246       C  0.58106570  0.27798602  0.19945112    -0.17800
C1247       C  0.48476444  0.33209251  0.28569734    -0.17800
H1248       H  0.00287402  0.17626867  0.30183798     0.15200
H1249       H  0.05816951  0.14947962  0.25235994     0.15200
H1250       H  0.53620773  0.40174028  0.25173773     0.15200
H1251       H  0.59134895  0.36947540  0.20550728     0.15200
H1252       H  0.86247363  0.25750618  0.32366781     0.13400
H1253       H  0.41265109  0.32504306  0.33544689     0.13400
H1254       H  0.09067492  0.15691076  0.14555350     0.13400
H1255       H  0.62081402  0.22875612  0.14528952     0.13400
H1256       H  0.92535240  0.17014180  0.21210913     0.26700
H1257       H  0.50100642  0.26993886  0.23425892     0.26700
C1258       C  0.74006701  0.26061130  0.12288280    -0.01900
N1259       N  0.72206364  0.51565643  0.05511013    -0.36100
N1260       N  0.70738636  0.43361014  0.09020892    -0.56600
N1261       N  0.83547353  0.39279051  0.05808795    -0.36100
N1262       N  0.79729877  0.01596563  0.00587558    -0.56600
C1263       C  0.68175123  0.52136151  0.07149470     0.27500
C1264       C  0.72862610  0.08100269  0.00830374     0.27500
C1265       C  0.79808978  0.38871494  0.07782937     0.27500
C1266       C  0.81533819  0.94336782  0.05715995     0.27500
C1267       C  0.66321443  0.44553013  0.08379787     0.36100
C1268       C  0.71447094  0.39152383  0.08042274     0.36100
C1269       C  0.80331198  0.05556606  0.98997038     0.36100
C1270       C  0.83812035  0.99467575  0.01014888     0.36100
C1271       C  0.67282632  0.56539908  0.07824381    -0.21400
C1272       C  0.71880445  0.08259716  0.04268132    -0.21400
C1273       C  0.80616186  0.40582045  0.10901508    -0.21300
C1274       C  0.82420871  0.91094765  0.08287084    -0.21300
C1275       C  0.64057302  0.40832733  0.07590063    -0.22400
C1276       C  0.67365755  0.37516638  0.07209462    -0.22400
C1277       C  0.84792122  0.05826112  0.97942056    -0.22400
C1278       C  0.87005633  0.01894166  0.99170467    -0.22400
C1279       C  0.64937313  0.48945546  0.07216145    -0.17800
C1280       C  0.77076464  0.09050138  0.99354000    -0.17800
C1281       C  0.84732384  0.97122141  0.04165846    -0.17800
C1282       C  0.75562484  0.37757878  0.06511373    -0.17800
H1283       H  0.64239045  0.58015833  0.08981813     0.15200
H1284       H  0.73961350  0.09520584  0.06204610     0.15200
H1285       H  0.78317351  0.40819892  0.13018520     0.15200
H1286       H  0.85637626  0.90295411  0.09538943     0.15200
H1287       H  0.60620563  0.40717105  0.06687126     0.13400
H1288       H  0.66985734  0.34615279  0.05808973     0.13400
H1289       H  0.86368796  0.08707099  0.96793935     0.13400
H1290       H  0.90654315  0.01220970  0.99134315     0.13400
H1291       H  0.73310937  0.48687888  0.04294993     0.26700
H1292       H  0.84036122  0.38380040  0.03309467     0.26700
O1293       O  0.59044525  0.22627556  0.40000478    -0.74800
O1294       O  0.62939606  0.26906168  0.43465859    -0.53700
C1295       C  0.62804241  0.24410136  0.40935591     0.79000
O1296       O  0.88190769  0.33824597  0.96867636    -0.59400
O1297       O  0.85648012  0.26917593  0.98171498    -0.52400
C1298       C  0.84991459  0.31097844  0.97369472     0.71000
O1299       O  0.51764572  0.38862160  0.45140134    -0.73900
O1300       O  0.58827707  0.35716316  0.46330276    -0.54500
C1301       C  0.56091087  0.39029028  0.45341198     0.77000
O1302       O  0.92500576  0.22072980  0.40648481    -0.59100
O1303       O  0.88401398  0.19633677  0.45282304    -0.52200
C1304       C  0.88682970  0.20915658  0.42127728     0.73600
Zr1305     Zr  0.00734017  0.23207075  0.42437724     2.54700
O1306       O  0.00149478  0.26425711  0.36683349    -0.79600
O1307       O  0.01808263  0.15758637  0.40281199    -0.93000
Zr1308     Zr  0.46287392  0.33403830  0.46588923     2.64700
O1309       O  0.44101530  0.36438210  0.40948074    -0.98000
O1310       O  0.42148383  0.40492937  0.01100757    -0.80100
O1311       O  0.52391915  0.29341300  0.43814513    -0.83400
O1312       O  0.94727722  0.26951853  0.45464916    -2.18100
O1313       O  0.98310987  0.11327820  0.03538353    -0.66800
O1314       O  0.91206356  0.14553274  0.02580540    -0.51400
C1315       C  0.93977924  0.11341938  0.03745486     0.72000
O1316       O  0.57682240  0.26770973  0.08507070    -0.59700
O1317       O  0.62080385  0.29219583  0.04045274    -0.51700
C1318       C  0.61599754  0.27692184  0.07114062     0.73800
O1319       O  0.90797279  0.27352031  0.08038523    -0.71100
O1320       O  0.86709738  0.23453306  0.04442349    -0.49800
C1321       C  0.86971841  0.25697943  0.07109499     0.75200
O1322       O  0.62035205  0.16355502  0.50369679    -0.66400
O1323       O  0.64673443  0.23175517  0.48822321    -0.53600
C1324       C  0.65226536  0.18954393  0.49452036     0.73500
Zr1325     Zr  0.54500658  0.17656017  0.01172643     2.77500
O1326       O  0.58774631  0.14067838  0.05916555    -0.97200
O1327       O  0.55486946  0.09227816  0.49534052    -0.78000
Zr1328     Zr  0.49374854  0.27443238  0.06767982     2.70100
O1329       O  0.49195932  0.23737518  0.12374424    -0.79200
O1330       O  0.49321026  0.34492177  0.09568600    -0.98300
Zr1331     Zr  0.57840526  0.27969922  0.48229620     2.21500
Zr1332     Zr  0.92062004  0.22029018  0.99836096     2.11100
O1333       O  0.97483969  0.20621647  0.04226501    -2.47000
O1334       O  0.54606372  0.24594133  0.02994257    -0.79000
O1335       O  0.98887293  0.18308232  0.47231102    -0.71200
O1336       O  0.51578926  0.32693777  0.02369013    -2.32200
O1337       O  0.55940078  0.20896379  0.46350811    -2.28400
O1338       O  0.93876116  0.29078523  0.01783531    -0.73000
H1339       H  0.92208470  0.27841968  0.44002679     0.79000
H1340       H  0.52496915  0.35292649  0.03448548     0.80100
H1341       H  0.96277008  0.18956237  0.06158437     0.82300
H1342       H  0.58457320  0.19192415  0.45376941     0.79900
H1343       H  0.40980044  0.42591164  0.99253349     0.43000
H1344       H  0.97538960  0.35054567  0.10334421     0.41900
H1345       H  0.47562733  0.25915275  0.13827905     0.41600
H1346       H  0.09457074  0.14809789  0.07251300     0.39500
H1347       H  0.09763707  0.11956608  0.47074211     0.42700
H1348       H  0.54601342  0.14022921  0.39631759     0.37500
H1349       H  0.52665605  0.21987487  0.34929794     0.43600
H1350       H  0.91935681  0.36409174  0.41119891     0.40000
H1351       H  0.57414903  0.11165287  0.06403614     0.44900
H1352       H  0.98710276  0.14647462  0.40240345     0.43600
H1353       H  0.46989591  0.36550136  0.39633701     0.43800
H1354       H  0.50028036  0.33640705  0.11972905     0.44100
C1355       C  0.96018376  0.99205968  0.56147113    -0.12800
C1356       C  0.87648414  0.99487339  0.06409281     0.09300
C1357       C  0.85620943  0.03534076  0.07520259    -0.12800
C1358       C  0.87801240  0.07480460  0.06873442    -0.12800
C1359       C  0.92144625  0.07316339  0.05392379     0.09300
C1360       C  0.97538941  0.03408185  0.55254460    -0.12800
H1361       H  0.98028621  0.96276955  0.55387128     0.13300
H1362       H  0.82014939  0.03832418  0.08076769     0.13300
H1363       H  0.85933568  0.10646453  0.07205750     0.13300
H1364       H  0.00859953  0.03610514  0.54069248     0.13300
C1365       C  0.57074661  0.48800924  0.04952335    -0.12800
C1366       C  0.61842623  0.50541089  0.47704161     0.09300
C1367       C  0.64596718  0.47509833  0.45858193    -0.12800
C1368       C  0.62656421  0.43862268  0.44518989    -0.12800
C1369       C  0.57941517  0.43474602  0.44811742     0.09300
C1370       C  0.54557301  0.46628453  0.02621366    -0.12800
H1371       H  0.55615044  0.49413113  0.07436058     0.13300
H1372       H  0.68252495  0.47393862  0.46124436     0.13300
H1373       H  0.64867217  0.41082175  0.43733843     0.13300
H1374       H  0.51190531  0.45665357  0.03377960     0.13300
C1375       C  0.73994009  0.37735902  0.47806966    -0.12800
C1376       C  0.75386389  0.36403741  0.02944341     0.09300
C1377       C  0.75031746  0.31914296  0.02296769    -0.12800
C1378       C  0.77196992  0.30229543  0.99432013    -0.12800
C1379       C  0.80217499  0.32925754  0.97588428     0.09300
C1380       C  0.78027383  0.35806012  0.46438729    -0.12800
H1381       H  0.72954115  0.41113761  0.46967695     0.13300
H1382       H  0.73676384  0.29619906  0.04194773     0.13300
H1383       H  0.77429247  0.26649343  0.99224956     0.13300
H1384       H  0.79945815  0.37697822  0.44559922     0.13300
C1385       C  0.74043505  0.10262146  0.47071864    -0.12800
C1386       C  0.77938825  0.13775921  0.98691258     0.09300
C1387       C  0.77611495  0.16321785  0.01601151    -0.12800
C1388       C  0.73656896  0.19060375  0.02084242    -0.12800
C1389       C  0.69769540  0.16842799  0.48899136     0.09300
C1390       C  0.70244150  0.13240693  0.46777902    -0.12800
H1391       H  0.73993067  0.07141795  0.45813570     0.13300
H1392       H  0.79662906  0.15312786  0.03799769     0.13300
H1393       H  0.72883640  0.20337846  0.04559755     0.13300
H1394       H  0.67465811  0.12468670  0.45173391     0.13300
C1395       C  0.78613867  0.26395612  0.10365745    -0.12700
C1396       C  0.82533282  0.26319622  0.09067250    -0.14300
C1397       C  0.69799542  0.26443834  0.10135321    -0.12700
C1398       C  0.65930735  0.26886330  0.08956895    -0.14300
C1399       C  0.72236870  0.33903157  0.15746151    -0.12700
C1400       C  0.73248467  0.30189356  0.14498095    -0.14300
C1401       C  0.74060263  0.17122977  0.14720399    -0.12700
C1402       C  0.73988763  0.21238771  0.13918027    -0.14300
C1403       C  0.83459825  0.22900554  0.26115315    -0.12800
C1404       C  0.88037915  0.22575832  0.25095073     0.09300
C1405       C  0.89589115  0.25661661  0.22589841    -0.12800
C1406       C  0.86990088  0.29566006  0.21783739    -0.12800
C1407       C  0.82751034  0.30317289  0.23366835     0.09300
C1408       C  0.80797228  0.26781142  0.25241184    -0.12800
H1409       H  0.82189922  0.20533751  0.28006027     0.13300
H1410       H  0.93101301  0.25453419  0.21725148     0.13300
H1411       H  0.88506784  0.32182181  0.20235887     0.13300
H1412       H  0.77459508  0.27234644  0.26410735     0.13300
C1413       C  0.63019687  0.20321675  0.26808448    -0.12800
C1414       C  0.67150537  0.19093151  0.25221348     0.09300
C1415       C  0.68912747  0.21969152  0.22661199    -0.12800
C1416       C  0.66126454  0.25437455  0.21203124    -0.12800
C1417       C  0.61668421  0.26157168  0.22388957     0.09300
C1418       C  0.60321343  0.23908835  0.25439223    -0.12800
H1419       H  0.61645876  0.18220351  0.28842995     0.13300
H1420       H  0.72159443  0.21160326  0.21447532     0.13300
H1421       H  0.67192471  0.27116597  0.18871546     0.13300
H1422       H  0.56912634  0.24421959  0.26458347     0.13300
C1423       C  0.58394181  0.36467333  0.32327765    -0.12800
C1424       C  0.57777194  0.40989649  0.31297574     0.09300
C1425       C  0.53354405  0.43043530  0.31259587    -0.12800
C1426       C  0.49642645  0.40356294  0.31210904    -0.12800
C1427       C  0.50468072  0.35716632  0.31233818     0.09300
C1428       C  0.54676746  0.33834479  0.32402257    -0.12800
H1429       H  0.61777039  0.34858012  0.32568776     0.13300
H1430       H  0.52799886  0.46584887  0.30637660     0.13300
H1431       H  0.46347603  0.41862137  0.30500971     0.13300
H1432       H  0.55342444  0.30246578  0.32550674     0.13300
C1433       C  0.96022064  0.05244456  0.17897539    -0.12800
C1434       C  0.91643987  0.07290586  0.17471869     0.09300
C1435       C  0.91124798  0.11534449  0.15822754    -0.12800
C1436       C  0.94938075  0.14029188  0.15244231    -0.12800
C1437       C  0.99131226  0.12377077  0.16598241     0.09300
C1438       C  0.99796595  0.07793943  0.17408965    -0.12800
H1439       H  0.96497877  0.01916585  0.19079776     0.13300
H1440       H  0.87764243  0.13104714  0.15365695     0.13300
H1441       H  0.94397119  0.17540467  0.14505846     0.13300
H1442       H  0.03056596  0.06432048  0.18354025     0.13300
C1443       C  0.80392447  0.22265352  0.39097863    -0.12700
C1444       C  0.84241257  0.21512546  0.40328750    -0.14300
C1445       C  0.71489257  0.23114406  0.38406050    -0.12700
C1446       C  0.67392272  0.23478638  0.39296523    -0.14300
C1447       C  0.76700726  0.27890529  0.35205352    -0.12700
C1448       C  0.76676880  0.31978820  0.34399257    -0.14300
C1449       C  0.77319439  0.15355952  0.33338729    -0.12700
C1450       C  0.76739929  0.19125169  0.34520550    -0.14300
C1451       C  0.75802401  0.23681515  0.86912200    -0.01900
O1452       O  0.66142153  0.11529950  0.76297315    -0.74800
O1453       O  0.73162952  0.14022091  0.75020931    -0.53700
C1454       C  0.68912231  0.14657984  0.75672285     0.79000
O1455       O  0.77969117  0.40408275  0.83349962    -0.57600
O1456       O  0.73618065  0.36764114  0.79750989    -0.52400
C1457       C  0.76087136  0.36791238  0.82379900     0.71000
O1458       O  0.76659024  0.07459131  0.83432197    -0.73900
O1459       O  0.79732742  0.11679668  0.79117945    -0.54500
C1460       C  0.77838825  0.11329978  0.82066310     0.77000
O1461       O  0.62055262  0.48035530  0.79088609    -0.59100
O1462       O  0.65042731  0.41154370  0.77810050    -0.52200
C1463       C  0.62052234  0.43776748  0.79248117     0.73600
Zr1464     Zr  0.67058493  0.53323840  0.76548766     2.54700
O1465       O  0.62616882  0.56076597  0.81342512    -0.79600
O1466       O  0.60577406  0.55289844  0.72906571    -0.93000
Zr1467     Zr  0.78391680  0.48904174  0.81577009     2.64700
O1468       O  0.75706888  0.48649825  0.87459780    -0.98000
O1469       O  0.85972353  0.48727251  0.84003459    -0.80100
O1470       O  0.73297975  0.04948882  0.78822210    -0.83400
O1471       O  0.71235273  0.47235422  0.79442795    -2.18100
O1472       O  0.72104198  0.42208896  0.65679211    -0.66800
O1473       O  0.70384530  0.37731501  0.70332229    -0.51400
C1474       C  0.71402836  0.38244629  0.67158994     0.72000
O1475       O  0.88081644  0.01493408  0.70159660    -0.59700
O1476       O  0.85374080  0.08443784  0.71503538    -0.51700
C1477       C  0.88226107  0.05751363  0.70002398     0.73800
O1478       O  0.83974941  0.37781740  0.72793316    -0.71100
O1479       O  0.76972321  0.35332995  0.74142093    -0.49800
C1480       C  0.81183908  0.34666219  0.73373052     0.75200
O1481       O  0.73190353  0.08874841  0.65606384    -0.66400
O1482       O  0.76777472  0.12795843  0.69501292    -0.53600
C1483       C  0.74695972  0.12640799  0.66678929     0.73500
Zr1484     Zr  0.72797028  0.00393499  0.67700324     2.77500
O1485       O  0.77658210  0.00165210  0.62680461    -0.97200
O1486       O  0.65772087  0.01300910  0.64496056    -0.78000
Zr1487     Zr  0.84065330  0.45966490  0.72681487     2.70100
O1488       O  0.88452467  0.42297950  0.68225517    -0.79200
O1489       O  0.91076511  0.44871619  0.75883877    -0.98300
Zr1490     Zr  0.78001832  0.07481738  0.74261163     2.21500
Zr1491     Zr  0.72442491  0.42039086  0.75084400     2.11100
O1492       O  0.77059060  0.44508460  0.70427320    -2.47000
O1493       O  0.79767922  0.02077832  0.70194702    -0.79000
O1494       O  0.67991891  0.47968785  0.72227818    -0.71200
O1495       O  0.82279339  0.01696468  0.77494667    -2.32200
O1496       O  0.70984463  0.05680490  0.71875175    -2.28400
O1497       O  0.79622665  0.43542433  0.77374248    -0.73000
H1498       H  0.69634250  0.46008901  0.81393477     0.79000
H1499       H  0.85045895  0.02780181  0.78346918     0.80100
H1500       H  0.78121626  0.42147597  0.69009287     0.82300
H1501       H  0.69322305  0.08258802  0.70853017     0.79900
H1502       H  0.83819215  0.00537127  0.87090911     0.43000
H1503       H  0.91641912  0.41587447  0.76083057     0.41900
H1504       H  0.91290002  0.91226775  0.70455278     0.41600
H1505       H  0.78457527  0.48892442  0.61868321     0.39500
H1506       H  0.65400103  0.49944383  0.62830245     0.42700
H1507       H  0.58047125  0.06784494  0.73394144     0.37500
H1508       H  0.59055758  0.07997249  0.79888696     0.43600
H1509       H  0.72369858  0.48457493  0.87306426     0.40000
H1510       H  0.78878460  0.03164579  0.62469928     0.44900
H1511       H  0.57923648  0.55332600  0.74480444     0.43600
H1512       H  0.76824098  0.45693651  0.88439623     0.43800
H1513       H  0.93470386  0.45898657  0.74287338     0.44100
N1514       N  0.95648010  0.16240854  0.73849300    -0.36100
N1515       N  0.47236175  0.26559153  0.78559417    -0.56600
N1516       N  0.51751552  0.31258029  0.73215049    -0.36100
N1517       N  0.53794457  0.22569146  0.69717126    -0.56600
C1518       C  0.95413951  0.17680610  0.77040280     0.27500
C1519       C  0.00078997  0.15171089  0.73170061     0.27500
C1520       C  0.51003100  0.34681240  0.75284660     0.27500
C1521       C  0.55509603  0.32084891  0.71338411     0.27500
C1522       C  0.93063011  0.23911659  0.80437356     0.36100
C1523       C  0.46345077  0.30674939  0.79649445     0.36100
C1524       C  0.04427716  0.18832153  0.68781233     0.36100
C1525       C  0.56563477  0.25478033  0.68218837     0.36100
C1526       C  0.99653905  0.16929403  0.78550672    -0.21400
C1527       C  0.02634049  0.15507019  0.76052909    -0.21400
C1528       C  0.53874802  0.38025695  0.74229820    -0.21300
C1529       C  0.56871623  0.36279150  0.71879487    -0.21300
C1530       C  0.90037691  0.26602134  0.82299707    -0.22400
C1531       C  0.42570380  0.30759961  0.81765997    -0.22400
C1532       C  0.07984723  0.18844744  0.66456318    -0.22400
C1533       C  0.58700872  0.23588372  0.65446827    -0.22400
C1534       C  0.91873909  0.20665006  0.78205596    -0.17800
C1535       C  0.01907961  0.15216917  0.69847837    -0.17800
C1536       C  0.58431488  0.28712726  0.70089625    -0.17800
C1537       C  0.48721966  0.34390812  0.78526138    -0.17800
H1538       H  0.00619938  0.17874975  0.81037180     0.15200
H1539       H  0.06304383  0.15147661  0.76236305     0.15200
H1540       H  0.54070762  0.41283890  0.75190582     0.15200
H1541       H  0.59888382  0.37787920  0.70866795     0.15200
H1542       H  0.86597538  0.25897183  0.83058524     0.13400
H1543       H  0.40939782  0.33645041  0.82915370     0.13400
H1544       H  0.09230980  0.16123035  0.64935859     0.13400
H1545       H  0.61527045  0.24879574  0.64028639     0.13400
H1546       H  0.93057004  0.16688919  0.72070074     0.26700
H1547       H  0.50212009  0.28243378  0.73310239     0.26700
C1548       C  0.73810333  0.26006496  0.62024669    -0.01900
N1549       N  0.69557502  0.55917889  0.49225251    -0.36100
N1550       N  0.67801463  0.45861499  0.54464789    -0.56600
N1551       N  0.78632252  0.42732073  0.52988525    -0.36100
N1552       N  0.82191448  0.99606326  0.53056512    -0.56600
C1553       C  0.66545986  0.54605274  0.51630731     0.27500
C1554       C  0.74446783  0.05638018  0.54198737     0.27500
C1555       C  0.75880615  0.40298112  0.54971507     0.27500
C1556       C  0.86574508  0.92421357  0.57083516     0.27500
C1557       C  0.63658316  0.47558967  0.53449707     0.36100
C1558       C  0.67770232  0.41396380  0.54303613     0.36100
C1559       C  0.81556313  0.03463423  0.51188792     0.36100
C1560       C  0.86519470  0.98036696  0.52557499     0.36100
C1561       C  0.67761524  0.56005393  0.54775720    -0.21400
C1562       C  0.71511739  0.08744704  0.55762819    -0.21400
C1563       C  0.77608171  0.39770737  0.58213612    -0.21300
C1564       C  0.85235240  0.92451717  0.60464202    -0.21300
C1565       C  0.60779966  0.44082221  0.53226807    -0.22400
C1566       C  0.63452751  0.40188093  0.53600530    -0.22400
C1567       C  0.85390339  0.04237645  0.49229631    -0.22400
C1568       C  0.88567255  0.00820164  0.50131271    -0.22400
C1569       C  0.63418724  0.51362893  0.51173256    -0.17800
C1570       C  0.77993974  0.06635768  0.51869399    -0.17800
C1571       C  0.88827252  0.95845600  0.55351297    -0.17800
C1572       C  0.71787046  0.38758722  0.53836238    -0.17800
H1573       H  0.66155368  0.55224952  0.57204979     0.15200
H1574       H  0.71876934  0.12262867  0.55976743     0.15200
H1575       H  0.76178035  0.37948723  0.60340818     0.15200
H1576       H  0.86527353  0.94441075  0.62406508     0.15200
H1577       H  0.57333895  0.44311238  0.52294791     0.13400
H1578       H  0.62439936  0.36928520  0.53044949     0.13400
H1579       H  0.86034677  0.07217448  0.47679382     0.13400
H1580       H  0.92142949  0.00732032  0.49441577     0.13400
H1581       H  0.69701556  0.55096031  0.46681088     0.26700
H1582       H  0.78064894  0.43765046  0.50462692     0.26700
O1583       O  0.58656415  0.24439102  0.90301684    -0.74800
O1584       O  0.62596230  0.28367785  0.93979996    -0.53700
C1585       C  0.62446216  0.26061590  0.91312684     0.79000
O1586       O  0.87643457  0.33510394  0.47352805    -0.59400
O1587       O  0.85788490  0.26312689  0.48535953    -0.52400
C1588       C  0.84750391  0.30442565  0.47785050     0.71000
O1589       O  0.50818937  0.40280563  0.98465025    -0.73900
O1590       O  0.58140488  0.37344498  0.98405375    -0.54500
C1591       C  0.55139576  0.40626133  0.98601179     0.77000
O1592       O  0.92125722  0.21600728  0.90526226    -0.59100
O1593       O  0.87854125  0.19527588  0.95169396    -0.52200
C1594       C  0.88214647  0.20763198  0.92022026     0.73600
Zr1595     Zr  0.00495983  0.22166979  0.92302471     2.54700
O1596       O  0.00417111  0.25223148  0.86507470    -0.79600
O1597       O  0.01134715  0.14692011  0.90163276    -0.93000
Zr1598     Zr  0.45771128  0.34198092  0.98234119     2.64700
O1599       O  0.43895547  0.37961104  0.92761410    -0.98000
O1600       O  0.43444511  0.40057296  0.49392694    -0.80100
O1601       O  0.51905125  0.31127837  0.94833287    -0.83400
O1602       O  0.94638914  0.26513472  0.95066169    -2.18100
O1603       O  0.99974654  0.11903142  0.53382886    -0.66800
O1604       O  0.92547282  0.14348774  0.52676168    -0.51400
C1605       C  0.95713174  0.11430933  0.53708561     0.72000
O1606       O  0.57561429  0.27481004  0.57699115    -0.59700
O1607       O  0.62353278  0.28873321  0.53204336    -0.51700
C1608       C  0.61640550  0.27984158  0.56378370     0.73800
O1609       O  0.90746007  0.27352750  0.58150911    -0.71100
O1610       O  0.87039287  0.23056349  0.54615279    -0.49800
C1611       C  0.87051210  0.25482426  0.57200559     0.75200
O1612       O  0.62842143  0.18194332  0.00723061    -0.66400
O1613       O  0.64828068  0.25353809  0.99576595    -0.53600
C1614       C  0.65773904  0.21172081  0.00072239     0.73500
Zr1615     Zr  0.53725108  0.16807072  0.51293655     2.77500
O1616       O  0.56605005  0.15048724  0.56980881    -0.97200
O1617       O  0.56283137  0.11571135  0.97445322    -0.78000
Zr1618     Zr  0.49204526  0.27900036  0.55802857     2.70100
O1619       O  0.49048895  0.25081422  0.61696056    -0.79200
O1620       O  0.48482134  0.35325745  0.58034550    -0.98300
Zr1621     Zr  0.57586938  0.29296287  0.98992576     2.21500
Zr1622     Zr  0.92590511  0.21993076  0.50074178     2.11100
O1623       O  0.98131768  0.20769778  0.54453707    -2.47000
O1624       O  0.55309774  0.23831614  0.53123448    -0.79000
O1625       O  0.98033850  0.17695557  0.97158281    -0.71200
O1626       O  0.51844296  0.32289955  0.50958620    -2.32200
O1627       O  0.56165712  0.22453668  0.96550224    -2.28400
O1628       O  0.93724957  0.29156828  0.52194477    -0.73000
H1629       H  0.92208565  0.27588585  0.93569577     0.79000
H1630       H  0.52886532  0.35090881  0.51647313     0.80100
H1631       H  0.97160610  0.18921927  0.56376335     0.82300
H1632       H  0.58793114  0.20931170  0.95575628     0.79900
H1633       H  0.43787245  0.42536287  0.47672918     0.43000
H1634       H  0.01889293  0.35625934  0.59674579     0.41900
H1635       H  0.46559344  0.26864670  0.62795963     0.41600
H1636       H  0.10991609  0.15961689  0.57006186     0.39500
H1637       H  0.08011626  0.07920830  0.00768658     0.42700
H1638       H  0.52974585  0.15465554  0.90285436     0.37500
H1639       H  0.48631914  0.32120026  0.88421808     0.43600
H1640       H  0.91658867  0.35692188  0.90849824     0.40000
H1641       H  0.57922857  0.11953080  0.56883476     0.44900
H1642       H  0.03377910  0.14882619  0.88272179     0.43600
H1643       H  0.42957615  0.41068550  0.93292898     0.43800
H1644       H  0.46620654  0.37146367  0.56343225     0.44100
C1645       C  0.92341756  0.99213457  0.05771874    -0.12800
C1646       C  0.91511273  0.98867925  0.57229256     0.09300
C1647       C  0.89078778  0.02705750  0.58366929    -0.12800
C1648       C  0.90456597  0.06903508  0.57281018    -0.12800
C1649       C  0.94531084  0.07222044  0.55444417     0.09300
C1650       C  0.94596168  0.03156946  0.05226418    -0.12800
H1651       H  0.94009951  0.96103100  0.05032285     0.13300
H1652       H  0.85642517  0.02479678  0.59332048     0.13300
H1653       H  0.88209762  0.09830165  0.57653535     0.13300
H1654       H  0.98044329  0.02957846  0.04236231     0.13300
C1655       C  0.57135422  0.50775947  0.47156871    -0.12800
C1656       C  0.61710981  0.49323169  0.04331458     0.09300
C1657       C  0.63519377  0.48487009  0.01074243    -0.12800
C1658       C  0.61071545  0.46151122  0.98818160    -0.12800
C1659       C  0.56715980  0.44856441  0.99731931     0.09300
C1660       C  0.55172932  0.47248727  0.45664594    -0.12800
H1661       H  0.54920537  0.53134999  0.48465046     0.13300
H1662       H  0.67070957  0.48931380  0.00493903     0.13300
H1663       H  0.62789093  0.44865432  0.96591060     0.13300
H1664       H  0.51502679  0.47128103  0.45795392     0.13300
C1665       C  0.76764442  0.39340940  0.00273724    -0.12800
C1666       C  0.72247894  0.35881033  0.50881323     0.09300
C1667       C  0.73335907  0.31378148  0.51668907    -0.12800
C1668       C  0.77115327  0.29280201  0.50155959    -0.12800
C1669       C  0.79838542  0.31728108  0.47874443     0.09300
C1670       C  0.79352576  0.37575482  0.97597946    -0.12800
H1671       H  0.76760441  0.42886515  0.00630937     0.13300
H1672       H  0.71918520  0.29777134  0.53896337     0.13300
H1673       H  0.78337212  0.26060576  0.51241133     0.13300
H1674       H  0.81376765  0.39796689  0.96036531     0.13300
C1675       C  0.75651014  0.15498510  0.95786227    -0.12800
C1676       C  0.77170681  0.10722451  0.49666601     0.09300
C1677       C  0.77269462  0.14872295  0.51154225    -0.12800
C1678       C  0.73479586  0.17915837  0.50824085    -0.12800
C1679       C  0.70477603  0.19612238  0.99463208     0.09300
C1680       C  0.71652683  0.18124172  0.96237932    -0.12800
H1681       H  0.76111661  0.13828697  0.93420683     0.13300
H1682       H  0.79706919  0.15323806  0.53123999     0.13300
H1683       H  0.73143604  0.20694526  0.52467422     0.13300
H1684       H  0.69233417  0.18511591  0.94196716     0.13300
C1685       C  0.78487694  0.26240031  0.60174778    -0.12700
C1686       C  0.82480625  0.26112005  0.58998194    -0.14300
C1687       C  0.69617915  0.26505397  0.59792760    -0.12700
C1688       C  0.65852102  0.27206642  0.58425925    -0.14300
C1689       C  0.72236325  0.33918811  0.65368164    -0.12700
C1690       C  0.73125355  0.30158999  0.64182356    -0.14300
C1691       C  0.73981886  0.17199384  0.64830488    -0.12700
C1692       C  0.73773760  0.21249381  0.63800734    -0.14300
C1693       C  0.83821156  0.23014375  0.76830241    -0.12800
C1694       C  0.88369133  0.22476131  0.75751028     0.09300
C1695       C  0.89885025  0.25220207  0.73004141    -0.12800
C1696       C  0.87242971  0.28977001  0.71869960    -0.12800
C1697       C  0.83046484  0.30003024  0.73444503     0.09300
C1698       C  0.81156688  0.26785396  0.75683510    -0.12800
H1699       H  0.82586392  0.20941683  0.78931428     0.13300
H1700       H  0.93388025  0.24903210  0.72122343     0.13300
H1701       H  0.88715824  0.31340908  0.70065804     0.13300
H1702       H  0.77873558  0.27456439  0.76888565     0.13300
C1703       C  0.62875399  0.20601383  0.76822637    -0.12800
C1704       C  0.67023615  0.19298403  0.75283483     0.09300
C1705       C  0.68912598  0.22174781  0.72783398    -0.12800
C1706       C  0.66289710  0.25804598  0.71380831    -0.12800
C1707       C  0.61838022  0.26681240  0.72534670     0.09300
C1708       C  0.60324207  0.24335922  0.75495904    -0.12800
H1709       H  0.61414881  0.18506622  0.78822474     0.13300
H1710       H  0.72166914  0.21307161  0.71601289     0.13300
H1711       H  0.67497026  0.27560580  0.69125288     0.13300
H1712       H  0.56910223  0.24962726  0.76479841     0.13300
C1713       C  0.58785436  0.37236934  0.82203834    -0.12800
C1714       C  0.58320311  0.41758826  0.81154641     0.09300
C1715       C  0.53979025  0.43985778  0.81228465    -0.12800
C1716       C  0.50148241  0.41448386  0.81256239    -0.12800
C1717       C  0.50777714  0.36786682  0.81243146     0.09300
C1718       C  0.54949472  0.34761742  0.82373915    -0.12800
H1719       H  0.62113632  0.35498896  0.82378315     0.13300
H1720       H  0.53544821  0.47539249  0.80612669     0.13300
H1721       H  0.46898694  0.43096991  0.80633313     0.13300
H1722       H  0.55471321  0.31156471  0.82536034     0.13300
C1723       C  0.96415280  0.05437346  0.68490152    -0.12800
C1724       C  0.92084776  0.07616315  0.68137948     0.09300
C1725       C  0.91685526  0.11907222  0.66554620    -0.12800
C1726       C  0.95574916  0.14321341  0.66056948    -0.12800
C1727       C  0.99726188  0.12519846  0.67399546     0.09300
C1728       C  0.00265052  0.07895320  0.68059285    -0.12800
H1729       H  0.96812119  0.02053379  0.69577769     0.13300
H1730       H  0.88366120  0.13581310  0.66122879     0.13300
H1731       H  0.95103359  0.17866165  0.65434485     0.13300
H1732       H  0.03495801  0.06389191  0.68934104     0.13300
C1733       C  0.79922466  0.22746189  0.89166525    -0.12700
C1734       C  0.83783920  0.21732721  0.90285333    -0.14300
C1735       C  0.71024640  0.24189428  0.88602306    -0.12700
C1736       C  0.67004988  0.24992688  0.89609772    -0.14300
C1737       C  0.76497569  0.28252129  0.85116830    -0.12700
C1738       C  0.76682622  0.32260123  0.84150820    -0.14300
C1739       C  0.76773938  0.15682452  0.83726020    -0.12700
C1740       C  0.76061685  0.19502045  0.84810922    -0.14300
C1741       C  0.75853153  0.73631151  0.36872733    -0.01900
O1742       O  0.66088438  0.61177224  0.27318207    -0.74800
O1743       O  0.72883563  0.63804823  0.25606137    -0.53700
C1744       C  0.68741203  0.64362177  0.26580240     0.79000
O1745       O  0.77260970  0.90336739  0.33153682    -0.57600
O1746       O  0.72668594  0.86714470  0.29717787    -0.52400
C1747       C  0.75343259  0.86717639  0.32240023     0.71000
O1748       O  0.76842791  0.57256083  0.33647156    -0.73900
O1749       O  0.79869910  0.61444424  0.29316167    -0.54500
C1750       C  0.77998342  0.61128703  0.32266028     0.77000
O1751       O  0.61013219  0.97913019  0.28574406    -0.59100
O1752       O  0.64118715  0.90995856  0.27485334    -0.52200
C1753       C  0.61035450  0.93644171  0.28794598     0.73600
Zr1754     Zr  0.66152772  0.03224076  0.26170703     2.54700
O1755       O  0.61839190  0.06340143  0.30898488    -0.79600
O1756       O  0.59600054  0.05033297  0.22542904    -0.93000
Zr1757     Zr  0.77287971  0.98873239  0.31514803     2.64700
O1758       O  0.73817489  0.98336427  0.37160165    -0.98000
O1759       O  0.84561871  0.98595490  0.34408471    -0.80100
O1760       O  0.73282626  0.54767086  0.29269718    -0.83400
O1761       O  0.70212347  0.97196749  0.29220397    -2.18100
O1762       O  0.71875414  0.92017843  0.15587169    -0.66800
O1763       O  0.69718455  0.87644571  0.20180162    -0.51400
C1764       C  0.71038862  0.88093237  0.17069151     0.72000
O1765       O  0.87195935  0.51602062  0.19699386    -0.59700
O1766       O  0.84767901  0.58450992  0.21423988    -0.51700
C1767       C  0.87374906  0.55843971  0.19648535     0.73800
O1768       O  0.83359566  0.87784037  0.22972942    -0.71100
O1769       O  0.76382187  0.85225062  0.24256556    -0.49800
C1770       C  0.80628060  0.84620640  0.23556400     0.75200
O1771       O  0.72664666  0.58840875  0.16059433    -0.66400
O1772       O  0.76462339  0.62681552  0.19880540    -0.53600
C1773       C  0.74288994  0.62550229  0.17108409     0.73500
Zr1774     Zr  0.72297062  0.50383841  0.18077588     2.77500
O1775       O  0.76490155  0.50648664  0.12713888    -0.97200
O1776       O  0.64950125  0.50950183  0.15281186    -0.78000
Zr1777     Zr  0.83351990  0.95971229  0.22835150     2.70100
O1778       O  0.88614378  0.92293138  0.18895895    -0.79200
O1779       O  0.89693992  0.95350461  0.26735140    -0.98300
Zr1780     Zr  0.77693356  0.57342548  0.24550327     2.21500
Zr1781     Zr  0.71655996  0.91910535  0.24953909     2.11100
O1782       O  0.76539043  0.94287353  0.20389522    -2.47000
O1783       O  0.78727358  0.51751941  0.20953678    -0.79000
O1784       O  0.67381252  0.97823639  0.21902155    -0.71200
O1785       O  0.82313536  0.51686148  0.27607780    -2.32200
O1786       O  0.70523644  0.55629425  0.22326421    -2.28400
O1787       O  0.78730898  0.93476329  0.27380384    -0.73000
H1788       H  0.68510536  0.96003058  0.31125035     0.79000
H1789       H  0.85080175  0.52870174  0.28369834     0.80100
H1790       H  0.77735929  0.91913865  0.19028335     0.82300
H1791       H  0.68830229  0.58215029  0.21393303     0.79900
H1792       H  0.85764222  0.51822298  0.34921973     0.43000
H1793       H  0.90539070  0.92108244  0.26881750     0.41900
H1794       H  0.91336690  0.41168703  0.20917476     0.41600
H1795       H  0.78635593  0.98292775  0.12075221     0.39500
H1796       H  0.65260177  0.98315176  0.12874886     0.42700
H1797       H  0.59385973  0.52391273  0.22077637     0.37500
H1798       H  0.60993390  0.53672476  0.33300972     0.43600
H1799       H  0.71842082  0.95786916  0.37111202     0.40000
H1800       H  0.79647910  0.49784893  0.13403505     0.44900
H1801       H  0.59754037  0.08253771  0.21916793     0.43600
H1802       H  0.76345610  0.97247749  0.38675449     0.43800
H1803       H  0.92222454  0.96681972  0.25432700     0.44100
N1804       N  0.95093437  0.65994906  0.23728933    -0.36100
N1805       N  0.46796183  0.76188842  0.28917595    -0.56600
N1806       N  0.54445587  0.82636429  0.25912708    -0.36100
N1807       N  0.53094533  0.73043892  0.19525317    -0.56600
C1808       C  0.95017030  0.67391493  0.26929951     0.27500
C1809       C  0.99475990  0.64803248  0.22958670     0.27500
C1810       C  0.50141084  0.84161608  0.26581399     0.27500
C1811       C  0.54587808  0.81451688  0.22655189     0.27500
C1812       C  0.93023871  0.73631439  0.30359311     0.36100
C1813       C  0.46160796  0.79810993  0.30771675     0.36100
C1814       C  0.03878844  0.68422486  0.18591949     0.36100
C1815       C  0.56651135  0.75565383  0.18870280     0.36100
C1816       C  0.99297747  0.66520760  0.28355483    -0.21400
C1817       C  0.02144294  0.65031281  0.25800096    -0.21400
C1818       C  0.47609268  0.84301589  0.23647036    -0.21300
C1819       C  0.50458772  0.82712607  0.21121132    -0.21300
C1820       C  0.90168370  0.76260399  0.32390068    -0.22400
C1821       C  0.42760308  0.79210268  0.33172459    -0.22400
C1822       C  0.07302522  0.68432928  0.16160437    -0.22400
C1823       C  0.59596331  0.73434518  0.16601298    -0.22400
C1824       C  0.91603464  0.70440353  0.28184089    -0.17800
C1825       C  0.01216818  0.64903194  0.19605327    -0.17800
C1826       C  0.57941041  0.78404084  0.21362808    -0.17800
C1827       C  0.48214820  0.83783229  0.29863341    -0.17800
H1828       H  0.00388902  0.67444753  0.30818432     0.15200
H1829       H  0.05818111  0.64597352  0.25909553     0.15200
H1830       H  0.43979087  0.85029948  0.23451776     0.15200
H1831       H  0.49433451  0.82021582  0.18583434     0.15200
H1832       H  0.86830631  0.75487950  0.33348083     0.13400
H1833       H  0.41319721  0.81643860  0.34876456     0.13400
H1834       H  0.08404709  0.65740851  0.14562636     0.13400
H1835       H  0.62998128  0.74343826  0.15908527     0.13400
H1836       H  0.92439050  0.66566703  0.22015520     0.26700
H1837       H  0.56928314  0.81761038  0.27724539     0.26700
C1838       C  0.73783598  0.75684541  0.12347074    -0.01900
N1839       N  0.69721997  0.05898040  0.99258803    -0.36100
N1840       N  0.67379258  0.96107541  0.05125097    -0.56600
N1841       N  0.77219027  0.94129936  0.04674991    -0.36100
N1842       N  0.81454854  0.49323599  0.03627159    -0.56600
C1843       C  0.66766866  0.04545492  0.01689299     0.27500
C1844       C  0.73906318  0.55607393  0.05038130     0.27500
C1845       C  0.75348447  0.90762686  0.06437019     0.27500
C1846       C  0.86229436  0.42027804  0.07317523     0.27500
C1847       C  0.63466040  0.97697833  0.03647615     0.36100
C1848       C  0.67388184  0.91619961  0.05185356     0.36100
C1849       C  0.80728434  0.53166286  0.01757877     0.36100
C1850       C  0.85569961  0.47503951  0.02739746     0.36100
C1851       C  0.67986157  0.06003453  0.04816404    -0.21400
C1852       C  0.70952971  0.58744342  0.06564874    -0.21400
C1853       C  0.78542003  0.88689595  0.08631314    -0.21300
C1854       C  0.84750225  0.42534213  0.10630157    -0.21300
C1855       C  0.60647586  0.94187124  0.03349836    -0.22400
C1856       C  0.63217509  0.90330475  0.04188047    -0.22400
C1857       C  0.84229486  0.53667595  0.99417575    -0.22400
C1858       C  0.87316915  0.50085578  0.00053055    -0.22400
C1859       C  0.63587438  0.01346413  0.01230402    -0.17800
C1860       C  0.77452608  0.56519073  0.02671167    -0.17800
C1861       C  0.88277798  0.45387376  0.05352773    -0.17800
C1862       C  0.71447313  0.88917698  0.05246075    -0.17800
H1863       H  0.66411735  0.05236804  0.07259997     0.15200
H1864       H  0.71239258  0.62282676  0.06692540     0.15200
H1865       H  0.78221525  0.85631933  0.10148505     0.15200
H1866       H  0.86048242  0.44720640  0.12436107     0.15200
H1867       H  0.57375621  0.94307272  0.02131225     0.13400
H1868       H  0.62280721  0.87006231  0.03764229     0.13400
H1869       H  0.84764698  0.56546477  0.97726687     0.13400
H1870       H  0.90734787  0.49776102  0.99009106     0.13400
H1871       H  0.69868647  0.05042227  0.96722136     0.26700
H1872       H  0.75561506  0.95965784  0.02710722     0.26700
O1873       O  0.58993675  0.73873161  0.40614893    -0.74800
O1874       O  0.62741761  0.78199375  0.44134276    -0.53700
C1875       C  0.62677460  0.75742894  0.41543953     0.79000
O1876       O  0.87590072  0.83648989  0.98002659    -0.59400
O1877       O  0.85546348  0.76440869  0.98701851    -0.52400
C1878       C  0.84611439  0.80650669  0.98310316     0.71000
O1879       O  0.50671012  0.90076894  0.48264175    -0.73900
O1880       O  0.58004952  0.87220249  0.48004850    -0.54500
C1881       C  0.55000105  0.90477083  0.48276860     0.77000
O1882       O  0.92292054  0.71794124  0.40356806    -0.59100
O1883       O  0.88020434  0.69666648  0.44991701    -0.52200
C1884       C  0.88385408  0.70940650  0.41848576     0.73600
Zr1885     Zr  0.00616746  0.72276091  0.42220315     2.54700
O1886       O  0.00776101  0.74725366  0.36267546    -0.79600
O1887       O  0.01104131  0.64578852  0.40544525    -0.93000
Zr1888     Zr  0.45822659  0.83825112  0.47742853     2.64700
O1889       O  0.45546146  0.87017181  0.41930960    -0.98000
O1890       O  0.45007783  0.90679268  0.99978254    -0.80100
O1891       O  0.52057585  0.80380319  0.44667759    -0.83400
O1892       O  0.94721378  0.76553463  0.45006315    -2.18100
O1893       O  0.99583440  0.61484723  0.02755574    -0.66800
O1894       O  0.92200988  0.64196273  0.02281661    -0.51400
C1895       C  0.95312300  0.61119003  0.03134401     0.72000
O1896       O  0.57534831  0.77209534  0.08219362    -0.59700
O1897       O  0.62327284  0.79011019  0.03809528    -0.51700
C1898       C  0.61598170  0.77826005  0.06933302     0.73800
O1899       O  0.90696385  0.76737851  0.08356028    -0.71100
O1900       O  0.86883089  0.72845710  0.04599478    -0.49800
C1901       C  0.86957097  0.75026086  0.07320665     0.75200
O1902       O  0.62932420  0.68244680  0.51285092    -0.66400
O1903       O  0.64805109  0.75363011  0.49777681    -0.53600
C1904       C  0.65799383  0.71232336  0.50475502     0.73500
Zr1905     Zr  0.53890174  0.67003232  0.01596926     2.77500
O1906       O  0.57168625  0.64350679  0.07022573    -0.97200
O1907       O  0.57586800  0.60869425  0.49157660    -0.78000
Zr1908     Zr  0.49252137  0.77993784  0.06282256     2.70100
O1909       O  0.49054342  0.75199046  0.12176507    -0.79200
O1910       O  0.48719694  0.85372333  0.08591752    -0.98300
Zr1911     Zr  0.57585285  0.79224047  0.49037028     2.21500
Zr1912     Zr  0.92374996  0.71995256  0.99942378     2.11100
O1913       O  0.98000602  0.70364966  0.04182503    -2.47000
O1914       O  0.55339349  0.73990337  0.03525802    -0.79000
O1915       O  0.98138716  0.67799343  0.47076120    -0.71200
O1916       O  0.52020880  0.82508663  0.01538659    -2.32200
O1917       O  0.56350251  0.72079692  0.47009528    -2.28400
O1918       O  0.93708918  0.78930790  0.02342379    -0.73000
H1919       H  0.92298097  0.77627365  0.43511248     0.79000
H1920       H  0.53081032  0.85279437  0.02270293     0.80100
H1921       H  0.97022122  0.68387391  0.06022175     0.82300
H1922       H  0.59044397  0.70607832  0.46075814     0.79900
H1923       H  0.44338388  0.92898835  0.98082328     0.43000
H1924       H  0.97843590  0.83503893  0.11771475     0.41900
H1925       H  0.46939230  0.77321211  0.13343045     0.41600
H1926       H  0.05658022  0.62726840  0.07566093     0.39500
H1927       H  0.03122037  0.58407210  0.48302052     0.42700
H1928       H  0.55046194  0.65263968  0.40007740     0.37500
H1929       H  0.51058270  0.72342038  0.35622775     0.43600
H1930       H  0.94982306  0.89626617  0.41142555     0.40000
H1931       H  0.56642931  0.61123130  0.07199638     0.44900
H1932       H  0.98272553  0.64277231  0.39269970     0.43600
H1933       H  0.42504544  0.88598929  0.41746127     0.43800
H1934       H  0.50189234  0.84937354  0.10839434     0.44100
C1935       C  0.92371009  0.49387486  0.55890896    -0.12800
C1936       C  0.91210315  0.48512922  0.06911123     0.09300
C1937       C  0.88982028  0.52409322  0.08147536    -0.12800
C1938       C  0.90282241  0.56585420  0.06917070    -0.12800
C1939       C  0.94084273  0.56853400  0.04765141     0.09300
C1940       C  0.94612731  0.53353809  0.55414102    -0.12800
H1941       H  0.94164036  0.46273684  0.55297959     0.13300
H1942       H  0.85704322  0.52245795  0.09412234     0.13300
H1943       H  0.88195315  0.59551418  0.07486339     0.13300
H1944       H  0.98144778  0.53168615  0.54615043     0.13300
C1945       C  0.57497295  0.00738067  0.97058950    -0.12800
C1946       C  0.62111524  0.99137669  0.53660457     0.09300
C1947       C  0.63710424  0.98159862  0.50377878    -0.12800
C1948       C  0.61024840  0.95907893  0.48223474    -0.12800
C1949       C  0.56685582  0.94721299  0.49300192     0.09300
C1950       C  0.55578253  0.97257204  0.95474850    -0.12800
H1951       H  0.55250919  0.03114930  0.98328435     0.13300
H1952       H  0.67253812  0.98478164  0.49689600     0.13300
H1953       H  0.62562799  0.94558818  0.45952299     0.13300
H1954       H  0.51903011  0.97177563  0.95502503     0.13300
C1955       C  0.76981987  0.89224653  0.49964755    -0.12800
C1956       C  0.72499262  0.86183745  0.02254107     0.09300
C1957       C  0.73628077  0.81656206  0.02847224    -0.12800
C1958       C  0.77168289  0.79574121  0.01043623    -0.12800
C1959       C  0.79773645  0.82097193  0.98731710     0.09300
C1960       C  0.79261570  0.87432420  0.47165093    -0.12800
H1961       H  0.77038661  0.92772056  0.50290832     0.13300
H1962       H  0.72314048  0.79928287  0.05031491     0.13300
H1963       H  0.78336237  0.76229063  0.01895879     0.13300
H1964       H  0.81163376  0.89631629  0.45491205     0.13300
C1965       C  0.75482966  0.65671406  0.45985364    -0.12800
C1966       C  0.76923741  0.60780835  0.00642146     0.09300
C1967       C  0.77113376  0.64795884  0.02308655    -0.12800
C1968       C  0.73545114  0.68071971  0.01868964    -0.12800
C1969       C  0.70466878  0.69698636  0.49806734     0.09300
C1970       C  0.71543548  0.68324060  0.46536694    -0.12800
H1971       H  0.75856189  0.64080617  0.43580747     0.13300
H1972       H  0.79355402  0.64962570  0.04450265     0.13300
H1973       H  0.73177414  0.70733252  0.03620808     0.13300
H1974       H  0.69061478  0.68766782  0.44545531     0.13300
C1975       C  0.78447656  0.75767114  0.10437797    -0.12700
C1976       C  0.82411518  0.75582763  0.09189706    -0.14300
C1977       C  0.69553886  0.76062599  0.10213721    -0.12700
C1978       C  0.65762265  0.76820239  0.08940228    -0.14300
C1979       C  0.72091302  0.83742587  0.15395117    -0.12700
C1980       C  0.73088472  0.79924841  0.14373416    -0.14300
C1981       C  0.73674635  0.67059624  0.15269314    -0.12700
C1982       C  0.73644326  0.71065841  0.14225827    -0.14300
C1983       C  0.83522297  0.72969716  0.27028448    -0.12800
C1984       C  0.88021821  0.72402997  0.25838360     0.09300
C1985       C  0.89462248  0.75219918  0.23109743    -0.12800
C1986       C  0.86795107  0.79011406  0.22067152    -0.12800
C1987       C  0.82611865  0.79989296  0.23683553     0.09300
C1988       C  0.80813283  0.76749331  0.25947625    -0.12800
H1989       H  0.82353562  0.70864721  0.29131996     0.13300
H1990       H  0.92929784  0.74891952  0.22153389     0.13300
H1991       H  0.88213501  0.81402525  0.20256926     0.13300
H1992       H  0.77551608  0.77387622  0.27191152     0.13300
C1993       C  0.62409429  0.69883632  0.27814847    -0.12800
C1994       C  0.66753631  0.68976133  0.26441952     0.09300
C1995       C  0.68651313  0.72180378  0.24190097    -0.12800
C1996       C  0.65916785  0.75769154  0.22827071    -0.12800
C1997       C  0.61312592  0.76204458  0.23755517     0.09300
C1998       C  0.59684493  0.73447716  0.26448973    -0.12800
H1999       H  0.60913813  0.67535944  0.29620224     0.13300
H2000       H  0.72044662  0.71614762  0.23137776     0.13300
H2001       H  0.67236958  0.77863358  0.20769929     0.13300
H2002       H  0.56130719  0.73706306  0.27201727     0.13300
C2003       C  0.58133607  0.87526238  0.32571286    -0.12800
C2004       C  0.57343661  0.91647410  0.30771707     0.09300
C2005       C  0.52921473  0.93673355  0.30746070    -0.12800
C2006       C  0.49283997  0.91138291  0.31798111    -0.12800
C2007       C  0.50087482  0.86530337  0.32443793     0.09300
C2008       C  0.54443688  0.85034886  0.33574641    -0.12800
H2009       H  0.61556527  0.86030299  0.32858709     0.13300
H2010       H  0.52235366  0.97003050  0.29614842     0.13300
H2011       H  0.45863178  0.92526321  0.31408608     0.13300
H2012       H  0.55154884  0.81569901  0.34363732     0.13300
C2013       C  0.95383228  0.55467186  0.17685150    -0.12800
C2014       C  0.91081622  0.57761837  0.17643443     0.09300
C2015       C  0.90692439  0.62214259  0.16391355    -0.12800
C2016       C  0.94613949  0.64583293  0.15963736    -0.12800
C2017       C  0.98789638  0.62548673  0.17079420     0.09300
C2018       C  0.99272735  0.57886389  0.17388979    -0.12800
H2019       H  0.95760510  0.51970445  0.18507487     0.13300
H2020       H  0.87391411  0.64006462  0.16222349     0.13300
H2021       H  0.94181199  0.68178621  0.15645835     0.13300
H2022       H  0.02515040  0.56233413  0.18107992     0.13300
C2023       C  0.80081456  0.72888813  0.39027964    -0.12700
C2024       C  0.83962380  0.71926721  0.40117623    -0.14300
C2025       C  0.71188240  0.74071999  0.38700907    -0.12700
C2026       C  0.67212645  0.74815234  0.39794566    -0.14300
C2027       C  0.76277614  0.78168336  0.34960596    -0.12700
C2028       C  0.76196137  0.82175204  0.33948253    -0.14300
C2029       C  0.76872349  0.65508380  0.33869603    -0.12700
C2030       C  0.76111739  0.69364303  0.34874007    -0.14300
C2031       C  0.76176407  0.73348443  0.86807100    -0.01900
O2032       O  0.67237839  0.61461611  0.76922200    -0.74800
O2033       O  0.74021388  0.63860704  0.74932449    -0.53700
C2034       C  0.69965233  0.64548041  0.76056747     0.79000
O2035       O  0.77351326  0.90475986  0.83657997    -0.57600
O2036       O  0.72989727  0.86795505  0.80094027    -0.52400
C2037       C  0.75548002  0.86809566  0.82677743     0.71000
O2038       O  0.77576119  0.57249229  0.83082728    -0.73900
O2039       O  0.80415092  0.61555867  0.78729912    -0.54500
C2040       C  0.78646145  0.61161011  0.81723782     0.77000
O2041       O  0.61236893  0.98034893  0.78977839    -0.59100
O2042       O  0.64396252  0.91143247  0.77883411    -0.52200
C2043       C  0.61288754  0.93764488  0.79202157     0.73600
Zr2044     Zr  0.66330829  0.03312560  0.76448096     2.54700
O2045       O  0.61852745  0.06671584  0.80997895    -0.79600
O2046       O  0.60049170  0.04363152  0.72474997    -0.93000
Zr2047     Zr  0.77330790  0.99092902  0.82006491     2.64700
O2048       O  0.73525440  0.98813462  0.87550913    -0.98000
O2049       O  0.84534373  0.98949434  0.84990984    -0.80100
O2050       O  0.74189552  0.54827148  0.78654174    -0.83400
O2051       O  0.70357111  0.97349254  0.79614851    -2.18100
O2052       O  0.72115596  0.92196106  0.65963644    -0.66800
O2053       O  0.70360868  0.87652466  0.70570631    -0.51400
C2054       C  0.71439568  0.88217198  0.67411119     0.72000
O2055       O  0.88256841  0.51282412  0.69351604    -0.59700
O2056       O  0.85823369  0.58152852  0.71050665    -0.51700
C2057       C  0.88459861  0.55519984  0.69327220     0.73800
O2058       O  0.83735388  0.87947913  0.73633167    -0.71100
O2059       O  0.76688763  0.85407396  0.74712861    -0.49800
C2060       C  0.80951659  0.84799740  0.74106580     0.75200
O2061       O  0.73195762  0.58935654  0.65502970    -0.66400
O2062       O  0.77279911  0.62647886  0.69241844    -0.53600
C2063       C  0.74931685  0.62615466  0.66537696     0.73500
Zr2064     Zr  0.72659346  0.50436309  0.67487379     2.77500
O2065       O  0.75655473  0.50869867  0.61721081    -0.97200
O2066       O  0.65031042  0.51102880  0.65131839    -0.78000
Zr2067     Zr  0.83733811  0.96161823  0.73406874     2.70100
O2068       O  0.88508585  0.92347189  0.69224198    -0.79200
O2069       O  0.90429413  0.95524292  0.76979382    -0.98300
Zr2070     Zr  0.78577974  0.57270295  0.73910907     2.21500
Zr2071     Zr  0.71961075  0.92056047  0.75384206     2.11100
O2072       O  0.76896450  0.94540103  0.70924456    -2.47000
O2073       O  0.79894545  0.51960260  0.69682392    -0.79000
O2074       O  0.67773106  0.97896972  0.72229199    -0.71200
O2075       O  0.83069966  0.51426318  0.76879007    -2.32200
O2076       O  0.71331324  0.55700900  0.71774212    -2.28400
O2077       O  0.78953981  0.93715164  0.77895681    -0.73000
H2078       H  0.68645641  0.96155945  0.81528317     0.79000
H2079       H  0.85931239  0.52466280  0.77588760     0.80100
H2080       H  0.78016180  0.92166869  0.69553377     0.82300
H2081       H  0.69658059  0.58352239  0.70884151     0.79900
H2082       H  0.86672161  0.51904966  0.84060568     0.43000
H2083       H  0.91808787  0.92510847  0.76570679     0.41900
H2084       H  0.86908915  0.43366120  0.66094541     0.41600
H2085       H  0.75517962  0.00147059  0.60784004     0.39500
H2086       H  0.64843811  0.04514137  0.64589111     0.42700
H2087       H  0.60893557  0.58465566  0.72192968     0.37500
H2088       H  0.64228962  0.54732615  0.83369772     0.43600
H2089       H  0.73338332  0.95601281  0.88193443     0.40000
H2090       H  0.73535765  0.49255282  0.60369923     0.44900
H2091       H  0.58303347  0.01659430  0.72837271     0.43600
H2092       H  0.75750993  0.99866037  0.89144164     0.43800
H2093       H  0.92556998  0.97589225  0.75863905     0.44100
N2094       N  0.95561509  0.66295183  0.73641746    -0.36100
N2095       N  0.46446175  0.75996862  0.79565260    -0.56600
N2096       N  0.52359488  0.79979742  0.74775441    -0.36100
N2097       N  0.54309835  0.72143379  0.70745650    -0.56600
C2098       C  0.95528032  0.67803355  0.76818777     0.27500
C2099       C  0.99957655  0.65205984  0.72836755     0.27500
C2100       C  0.50697470  0.83674597  0.76297265     0.27500
C2101       C  0.55689733  0.81219474  0.72601595     0.27500
C2102       C  0.93543725  0.74224530  0.80059033     0.36100
C2103       C  0.45820411  0.80089048  0.80724485     0.36100
C2104       C  0.04091512  0.68928031  0.68342100     0.36100
C2105       C  0.57445356  0.74789997  0.69412080     0.36100
C2106       C  0.99856047  0.67106033  0.78190714    -0.21400
C2107       C  0.02666331  0.65585474  0.75630389    -0.21400
C2108       C  0.52732094  0.87343653  0.74751754    -0.21300
C2109       C  0.56005769  0.85761161  0.72517353    -0.21300
C2110       C  0.90804810  0.76826315  0.82189203    -0.22400
C2111       C  0.41802338  0.80421272  0.82576937    -0.22400
C2112       C  0.07316069  0.69042765  0.65769270    -0.22400
C2113       C  0.59865148  0.72635794  0.66860538    -0.22400
C2114       C  0.92093044  0.70806550  0.78094385    -0.17800
C2115       C  0.01655625  0.65309812  0.69471806    -0.17800
C2116       C  0.58985319  0.78239849  0.71260445    -0.17800
C2117       C  0.48309592  0.83683313  0.79493769    -0.17800
H2118       H  0.00981700  0.68168115  0.80609352     0.15200
H2119       H  0.06339017  0.65208852  0.75689431     0.15200
H2120       H  0.52086179  0.90813329  0.75251234     0.15200
H2121       H  0.58449523  0.87695254  0.71100551     0.15200
H2122       H  0.87617957  0.75963863  0.83377815     0.13400
H2123       H  0.40215507  0.83405422  0.83613731     0.13400
H2124       H  0.08415792  0.66359215  0.64162805     0.13400
H2125       H  0.62865381  0.73748593  0.65535583     0.13400
H2126       H  0.92872598  0.66696477  0.71937784     0.26700
H2127       H  0.51774692  0.76679499  0.75426377     0.26700
C2128       C  0.73972522  0.76086902  0.62191059    -0.01900
N2129       N  0.72717241  0.01597083  0.54567978    -0.36100
N2130       N  0.71335244  0.93508216  0.58474270    -0.56600
N2131       N  0.83914326  0.89827611  0.55400969    -0.36100
N2132       N  0.79853190  0.51602801  0.50401941    -0.56600
C2133       C  0.68684334  0.02159464  0.56206794     0.27500
C2134       C  0.72742688  0.58014482  0.50840453     0.27500
C2135       C  0.80356317  0.88930385  0.57456396     0.27500
C2136       C  0.81997235  0.43984156  0.54942386     0.27500
C2137       C  0.66930215  0.94618433  0.57741442     0.36100
C2138       C  0.72057480  0.89184130  0.57791501     0.36100
C2139       C  0.80280620  0.55672592  0.48924175     0.36100
C2140       C  0.84068100  0.49677642  0.50751945     0.36100
C2141       C  0.67817617  0.06536462  0.56962556    -0.21400
C2142       C  0.71708259  0.58187312  0.54269593    -0.21400
C2143       C  0.81229250  0.90272920  0.60684414    -0.21300
C2144       C  0.81571632  0.42050868  0.58189880    -0.21300
C2145       C  0.64680342  0.90819125  0.57159557    -0.22400
C2146       C  0.67990524  0.87457576  0.57054224    -0.22400
C2147       C  0.84725220  0.56216205  0.47907839    -0.22400
C2148       C  0.87143170  0.52369946  0.49048678    -0.22400
C2149       C  0.65501963  0.98921758  0.56426534    -0.17800
C2150       C  0.76936395  0.59059254  0.49369312    -0.17800
C2151       C  0.85050332  0.47181821  0.53809713    -0.17800
C2152       C  0.76128043  0.87708280  0.56252642    -0.17800
H2153       H  0.64814635  0.07977569  0.58190956     0.15200
H2154       H  0.73778319  0.59408722  0.56229166     0.15200
H2155       H  0.79036969  0.90065408  0.62882476     0.15200
H2156       H  0.83742818  0.42421713  0.60335964     0.15200
H2157       H  0.61275267  0.90614901  0.56212655     0.13400
H2158       H  0.67674070  0.84436443  0.55797405     0.13400
H2159       H  0.86153082  0.59240678  0.46873528     0.13400
H2160       H  0.90814483  0.51913748  0.49077366     0.13400
H2161       H  0.73864796  0.98727177  0.53359876     0.26700
H2162       H  0.84292094  0.89311310  0.52818821     0.26700
O2163       O  0.59122622  0.73014220  0.90374435    -0.74800
O2164       O  0.63150770  0.76963584  0.93988350    -0.53700
C2165       C  0.62929345  0.74645957  0.91357079     0.79000
O2166       O  0.88067089  0.83807360  0.46569046    -0.59400
O2167       O  0.85651776  0.76896097  0.48033663    -0.52400
C2168       C  0.84925834  0.81031342  0.47099175     0.71000
O2169       O  0.52154485  0.88812264  0.95069303    -0.73900
O2170       O  0.59108900  0.85865581  0.96744895    -0.54500
C2171       C  0.56453686  0.89038539  0.95434150     0.77000
O2172       O  0.92364365  0.72655471  0.90522940    -0.59100
O2173       O  0.88369094  0.69762388  0.95057200    -0.52200
C2174       C  0.88607866  0.71297800  0.91965475     0.73600
Zr2175     Zr  0.00565933  0.73723212  0.92311470     2.54700
O2176       O  0.00285522  0.77342569  0.86691974    -0.79600
O2177       O  0.01663718  0.66627408  0.89592005    -0.93000
Zr2178     Zr  0.46531914  0.83749520  0.97143163     2.64700
O2179       O  0.43236920  0.87093029  0.91892390    -0.98000
O2180       O  0.41008432  0.90121862  0.49598157    -0.80100
O2181       O  0.52577688  0.79706955  0.94304929    -0.83400
O2182       O  0.94504623  0.77253471  0.95479430    -2.18100
O2183       O  0.98320402  0.61531523  0.53511192    -0.66800
O2184       O  0.91198768  0.64678997  0.52507452    -0.51400
C2185       C  0.93974107  0.61507042  0.53714465     0.72000
O2186       O  0.57489862  0.77269118  0.58529221    -0.59700
O2187       O  0.61877332  0.79949265  0.54151515    -0.51700
C2188       C  0.61427877  0.78288109  0.57196379     0.73800
O2189       O  0.90763915  0.77464019  0.57960887    -0.71100
O2190       O  0.86742170  0.73515741  0.54354279    -0.49800
C2191       C  0.86961385  0.75770534  0.57020673     0.75200
O2192       O  0.62243910  0.66832389  0.00920836    -0.66400
O2193       O  0.64908628  0.73665045  0.99458542    -0.53600
C2194       C  0.65457723  0.69455568  0.00104187     0.73500
Zr2195     Zr  0.54630043  0.67562015  0.51815268     2.77500
O2196       O  0.58067110  0.65011946  0.57218112    -0.97200
O2197       O  0.55787504  0.59894257  0.99073284    -0.78000
Zr2198     Zr  0.49114140  0.77824549  0.56774284     2.70100
O2199       O  0.49171639  0.74544661  0.62545820    -0.79200
O2200       O  0.48312306  0.84899577  0.59550873    -0.98300
Zr2201     Zr  0.57990572  0.78221222  0.98728852     2.21500
Zr2202     Zr  0.92121025  0.72102905  0.49756417     2.11100
O2203       O  0.97582143  0.70765517  0.54147284    -2.47000
O2204       O  0.55359288  0.74620048  0.53739810    -0.79000
O2205       O  0.98570293  0.68521398  0.96863478    -0.71200
O2206       O  0.51352878  0.82711759  0.52136899    -2.32200
O2207       O  0.56122072  0.71212807  0.96736864    -2.28400
O2208       O  0.93784717  0.79187245  0.51710086    -0.73000
H2209       H  0.91951595  0.78252824  0.94075853     0.79000
H2210       H  0.52195154  0.85391430  0.53151408     0.80100
H2211       H  0.96397990  0.69086381  0.56086438     0.82300
H2212       H  0.58682177  0.69532378  0.95788092     0.79900
H2213       H  0.41581995  0.92591744  0.47915773     0.43000
H2214       H  0.96053028  0.86809459  0.57155502     0.41900
H2215       H  0.49281810  0.77110649  0.64015221     0.41600
H2216       H  0.06700340  0.60480544  0.56741547     0.39500
H2217       H  0.08562584  0.61892954  0.95983517     0.42700
H2218       H  0.48498146  0.63929582  0.90546771     0.37500
H2219       H  0.52531582  0.72850737  0.85311332     0.43600
H2220       H  0.94421869  0.85108879  0.90709356     0.40000
H2221       H  0.55549622  0.63808416  0.58609388     0.44900
H2222       H  0.01456395  0.64305774  0.91453812     0.43600
H2223       H  0.43943855  0.84861470  0.90168303     0.43800
H2224       H  0.45989147  0.86715837  0.58209245     0.44100
C2225       C  0.95524146  0.48816413  0.05429358    -0.12800
C2226       C  0.87628054  0.49603412  0.56262058     0.09300
C2227       C  0.85449152  0.53651221  0.57245315    -0.12800
C2228       C  0.87628905  0.57622969  0.56666411    -0.12800
C2229       C  0.92098428  0.57493439  0.55393726     0.09300
C2230       C  0.96938465  0.52986649  0.04321135    -0.12800
H2231       H  0.97407804  0.45858372  0.04592108     0.13300
H2232       H  0.81798121  0.53906990  0.57617514     0.13300
H2233       H  0.85689760  0.60772730  0.56875372     0.13300
H2234       H  0.00064874  0.53139236  0.02859984     0.13300
C2235       C  0.57500883  0.98715463  0.54454010    -0.12800
C2236       C  0.62164973  0.00432587  0.97746825     0.09300
C2237       C  0.64985284  0.97361391  0.95991028    -0.12800
C2238       C  0.63075466  0.93754464  0.94574136    -0.12800
C2239       C  0.58341343  0.93434214  0.94733600     0.09300
C2240       C  0.54778829  0.96546078  0.52252976    -0.12800
H2241       H  0.56208469  0.99432463  0.56967491     0.13300
H2242       H  0.68624140  0.97223321  0.96342478     0.13300
H2243       H  0.65293328  0.90934211  0.93872116     0.13300
H2244       H  0.51461785  0.95627581  0.53148366     0.13300
C2245       C  0.74256864  0.88310428  0.99277885    -0.12800
C2246       C  0.75846379  0.86301168  0.52712307     0.09300
C2247       C  0.75350322  0.81816066  0.52101744    -0.12800
C2248       C  0.77167368  0.80129511  0.49117692    -0.12800
C2249       C  0.80122956  0.82781885  0.47176000     0.09300
C2250       C  0.78062140  0.86365869  0.97627418    -0.12800
H2251       H  0.73296792  0.91759857  0.98633467     0.13300
H2252       H  0.74120463  0.79535259  0.54066365     0.13300
H2253       H  0.77327423  0.76549179  0.48901309     0.13300
H2254       H  0.79914070  0.88349848  0.95765308     0.13300
C2255       C  0.74086885  0.60674952  0.97827013    -0.12800
C2256       C  0.77781113  0.63805686  0.48837581     0.09300
C2257       C  0.77556536  0.66215209  0.51816107    -0.12800
C2258       C  0.73674129  0.69002445  0.52392094    -0.12800
C2259       C  0.70014056  0.67353167  0.99649116     0.09300
C2260       C  0.70549887  0.63920088  0.97381308    -0.12800
H2261       H  0.73993998  0.57663060  0.96436176     0.13300
H2262       H  0.79614588  0.65074534  0.53978225     0.13300
H2263       H  0.72958096  0.70180364  0.54905925     0.13300
H2264       H  0.67919942  0.63435019  0.95561069     0.13300
C2265       C  0.78562646  0.76411861  0.60237356    -0.12700
C2266       C  0.82495348  0.76358351  0.58956474    -0.14300
C2267       C  0.69681856  0.76535507  0.60100838    -0.12700
C2268       C  0.65776111  0.77203618  0.58994525    -0.14300
C2269       C  0.72377966  0.83940745  0.65582745    -0.12700
C2270       C  0.73308163  0.80198799  0.64385899    -0.14300
C2271       C  0.74188834  0.67225721  0.64808755    -0.12700
C2272       C  0.74012141  0.71305630  0.63893403    -0.14300
C2273       C  0.83917151  0.73089253  0.77373881    -0.12800
C2274       C  0.88246310  0.72448336  0.75886343     0.09300
C2275       C  0.89361636  0.75177204  0.73014487    -0.12800
C2276       C  0.86722799  0.79070133  0.72199786    -0.12800
C2277       C  0.82838097  0.80156390  0.74139492     0.09300
C2278       C  0.81206182  0.76947832  0.76503986    -0.12800
H2279       H  0.83005164  0.71041544  0.79579603     0.13300
H2280       H  0.92678158  0.74779167  0.71804390     0.13300
H2281       H  0.87962065  0.81434962  0.70287924     0.13300
H2282       H  0.78130036  0.77663413  0.77962590     0.13300
C2283       C  0.64259692  0.70478948  0.77783669    -0.12800
C2284       C  0.68190259  0.69221175  0.75955036     0.09300
C2285       C  0.69827143  0.72188466  0.73404695    -0.12800
C2286       C  0.67051160  0.75823280  0.72198390    -0.12800
C2287       C  0.62695277  0.76571353  0.73587531     0.09300
C2288       C  0.61578334  0.74226079  0.76660494    -0.12800
H2289       H  0.63016518  0.68327350  0.79839873     0.13300
H2290       H  0.72931573  0.71363492  0.72005035     0.13300
H2291       H  0.68006302  0.77611648  0.69876301     0.13300
H2292       H  0.58342799  0.74821048  0.77922733     0.13300
C2293       C  0.58256439  0.87363332  0.82558026    -0.12800
C2294       C  0.57574407  0.91717274  0.81137448     0.09300
C2295       C  0.53158010  0.93786954  0.81179005    -0.12800
C2296       C  0.49433029  0.91121047  0.81675616    -0.12800
C2297       C  0.50224879  0.86472890  0.82043140     0.09300
C2298       C  0.54526435  0.84798382  0.83184435    -0.12800
H2299       H  0.61650653  0.85778753  0.82784014     0.13300
H2300       H  0.52552828  0.97241106  0.80295093     0.13300
H2301       H  0.46068689  0.92549643  0.81111581     0.13300
H2302       H  0.55208710  0.81249064  0.83671373     0.13300
C2303       C  0.96517429  0.55401348  0.67611051    -0.12800
C2304       C  0.92130793  0.57467929  0.67355571     0.09300
C2305       C  0.91547307  0.61869205  0.66010835    -0.12800
C2306       C  0.95299890  0.64472395  0.65729067    -0.12800
C2307       C  0.99474469  0.62681860  0.67014656     0.09300
C2308       C  0.00235494  0.58048794  0.67432211    -0.12800
H2309       H  0.97030021  0.51948599  0.68527573     0.13300
H2310       H  0.88168753  0.63457875  0.65677442     0.13300
H2311       H  0.94706287  0.68048234  0.65299097     0.13300
H2312       H  0.03504347  0.56611390  0.68289191     0.13300
C2313       C  0.80307833  0.72633214  0.89050599    -0.12700
C2314       C  0.84174926  0.71926438  0.90217523    -0.14300
C2315       C  0.71465246  0.73328482  0.88556210    -0.12700
C2316       C  0.67444073  0.73735037  0.89609265    -0.14300
C2317       C  0.76472723  0.78111029  0.85170641    -0.12700
C2318       C  0.76390873  0.82199432  0.84335472    -0.14300
C2319       C  0.77529941  0.65484408  0.83438855    -0.12700
C2320       C  0.76700959  0.69255995  0.84599987    -0.14300
loop_ 
_geom_bond_atom_site_label_1 
_geom_bond_atom_site_label_2 
_geom_bond_distance 
_geom_bond_site_symmetry_2 
_ccdc_geom_bond_type 
C1          C283   1.510       .  S
C1          C285   1.547       .  S
C1          C287   1.541       .  S
C1          C290   1.537       .  S
O2            C4   1.293       .  A
O2         Zr594   2.464       .  S
O3            C4   1.281       .  A
O3          Zr40   2.401       .  S
C4          C254   1.478       .  S
O5            C7   1.326       .  A
O5          Zr17   2.626       .  S
O6            C7   1.274       .  A
O6          Zr41   2.382       .  S
C7          C288   1.505       .  S
O8           C10   1.322       .  A
O8         Zr597   2.610   1_545  S
O9           C10   1.281       .  A
O9          Zr40   2.413       .  S
C10         C289   1.507       .  S
O11          C13   1.284       .  A
O11         Zr14   2.428       .  S
O12          C13   1.287       .  A
O12         Zr41   2.421       .  S
C13         C264   1.472       .  S
Zr14        O582   2.468       .  S
Zr14         O15   2.436       .  S
Zr14         O16   2.438       .  S
Zr14         O21   2.394       .  S
Zr14         O44   2.404       .  S
Zr14        O600   2.353       .  S
Zr14        O626   2.361       .  S
O15         H638   0.990       .  S
O16          H61   0.990       .  S
O16         H637   0.990       .  S
Zr17        O588   2.595       .  S
Zr17         O18   2.436       .  S
Zr17         O19   2.435       .  S
Zr17         O21   2.376       .  S
Zr17         O47   2.374       .  S
Zr17        O600   2.367       .  S
Zr17        O625   2.418       .  S
O18          H59   0.990       .  S
O18          H62   0.990       .  S
O19         H632   0.990       .  S
O20         Zr40   2.374       .  S
O20        Zr594   2.344       .  S
O20        Zr597   2.375   1_545  S
O21         Zr41   2.388       .  S
O21          H48   0.969       .  S
O22          C24   1.326       .  A
O22        Zr614   2.628       .  S
O23          C24   1.283       .  A
O23         Zr41   2.424       .  S
C24         C239   1.517       .  S
O25          C27   1.277       .  A
O25        Zr617   2.392   1_545  S
O26          C27   1.290       .  A
O26         Zr40   2.442       .  S
C27         C274   1.458       .  S
O28          C30   1.292       .  A
O28         Zr37   2.464       .  S
O29          C30   1.277       .  A
O29         Zr41   2.384       .  S
C30         C247   1.472       .  S
O31          C33   1.330       .  A
O31         Zr34   2.649       .  S
O32          C33   1.277       .  A
O32         Zr40   2.392       .  S
C33         C241   1.511       .  S
Zr34        O602   2.611   1_545  S
Zr34         O35   2.430       .  S
Zr34         O36   2.433       .  S
Zr34         O43   2.371       .  S
Zr34         O46   2.380       .  S
Zr34        O622   2.394   1_545  S
Zr34        O624   2.419   1_545  S
O35          H60   0.988   1_545  S
O35         H635   0.988       .  S
O36         H636   0.990       .  S
Zr37        O605   2.415       .  S
Zr37         O38   2.437       .  S
Zr37         O39   2.430       .  S
Zr37         O42   2.332       .  S
Zr37         O47   2.366       .  S
Zr37        O623   2.386       .  S
Zr37        O625   2.395       .  S
O38         H634   0.990       .  S
O39          H53   0.990       .  S
O39          H63   0.990       .  S
Zr40         O43   2.364       .  S
Zr40         O45   2.402       .  S
Zr40         O46   2.386       .  S
Zr41         O42   2.377       .  S
Zr41         O44   2.387       .  S
Zr41         O47   2.381       .  S
O42        Zr614   2.391       .  S
O42          H50   0.959       .  S
O43        Zr617   2.380   1_545  S
O44        Zr614   2.407       .  S
O45        Zr597   2.409   1_545  S
O45        Zr617   2.385   1_545  S
O45          H49   0.967       .  S
O46        Zr594   2.355       .  S
O46          H51   0.962       .  S
H52         O599   0.990       .  S
H54         O618   0.990       .  S
H55         O615   0.989       .  S
H56         O616   0.990       .  S
H57         O596   0.990       .  S
H58         O595   0.990       .  S
N64          C69   1.352       .  A
N64          C68   1.351       .  A
N64          H96   1.042       .  S
N65          C73   1.337       .  A
N65        C1232   1.341       .  A
N66          C71   1.351       .  A
N66          C70   1.353       .  A
N66          H97   1.036       .  S
N67          C75   1.339       .  A
N67        C1234   1.343       .  A
C68          C76   1.391       .  A
C68          C84   1.417       .  A
C69          C85   1.408       .  A
C69          C77   1.382       .  A
C70          C78   1.395       .  A
C70          C87   1.434   1_455  A
C71          C86   1.402       .  A
C71          C79   1.374       .  A
C72        N1225   1.340       .  A
C72          C84   1.402       .  A
C72          C80   1.390       .  A
C73          C87   1.402       .  A
C73          C81   1.380       .  A
C74        N1227   1.341       .  A
C74          C82   1.378       .  A
C74          C85   1.387       .  A
C75          C83   1.390       .  A
C75          C86   1.399       .  A
C76          C77   1.374       .  A
C76          H88   1.083       .  S
C77          H89   1.082       .  S
C78          C79   1.376       .  A
C78          H90   1.078       .  S
C79          H91   1.082       .  S
C80        C1241   1.386       .  A
C80          H92   1.082       .  S
C81        C1240   1.386       .  A
C81          H93   1.082       .  S
C82        C1243   1.382       .  A
C82          H94   1.082       .  S
C83        C1242   1.382       .  A
C83          H95   1.080       .  S
C84         C244   1.485       .  S
C85         C277   1.464       .  S
C86         C257   1.490       .  S
C87         C267   1.478   1_655  S
C98         C235   1.562       .  S
C98         C237   1.518       .  S
C98         C240   1.551       .  S
C98         C242   1.546       .  S
N99         C103   1.350   1_556  A
N99         C684   1.341   1_556  A
N99         H131   1.044       .  S
N100        C107   1.348       .  A
N100        C108   1.344       .  A
N101        C105   1.341       .  A
N101        C686   1.349       .  A
N101        H132   1.037       .  S
N102        C109   1.344   1_565  A
N102        C110   1.346       .  A
C103        C111   1.389       .  A
C103        C119   1.404       .  A
C104        N679   1.344       .  A
C104        C120   1.416       .  A
C104        C112   1.395       .  A
C105        C113   1.386       .  A
C105        C122   1.400       .  A
C106        N681   1.344       .  A
C106        C121   1.403       .  A
C106        C114   1.383       .  A
C107        C119   1.421       .  A
C107        C115   1.394       .  A
C108        C122   1.400       .  A
C108        C116   1.379       .  A
C109        C117   1.381   1_554  A
C109        C120   1.404       .  A
C110        C118   1.392   1_565  A
C110        C121   1.411       .  A
C111        C692   1.373       .  A
C111        H123   1.083       .  S
C112        C691   1.375       .  A
C112        H124   1.077       .  S
C113        C694   1.384       .  A
C113        H125   1.079       .  S
C114        C693   1.385       .  A
C114        H126   1.081       .  S
C115        C116   1.376       .  A
C115        H127   1.081       .  S
C116        H128   1.079       .  S
C117        C118   1.381   1_556  A
C117        H129   1.082       .  S
C118        H130   1.081   1_554  S
C119        C496   1.480   1_554  S
C120        C226   1.472       .  S
C121        C196   1.477       .  S
C122        C216   1.483       .  S
O133        C135   1.317       .  A
O133      Zr1305   2.587       .  S
O134        C135   1.291       .  A
O134       Zr171   2.464       .  S
C135        C286   1.514       .  S
O136        C138   1.290       .  A
O136      Zr1598   2.450       .  S
O137        C138   1.283       .  A
O137       Zr172   2.400   1_556  S
C138        C219   1.469       .  S
O139        C141   1.286       .  A
O139       Zr148   2.440   1_455  S
O140        C141   1.287       .  A
O140       Zr171   2.427       .  S
C141        C209   1.474       .  S
O142        C144   1.314       .  A
O142       Zr145   2.572       .  S
O143        C144   1.280       .  A
O143       Zr462   2.409       .  S
C144        C284   1.481       .  S
Zr145      O1293   2.617       .  S
Zr145       O146   2.428       .  S
Zr145       O147   2.435       .  S
Zr145       O152   2.393       .  S
Zr145       O175   2.409       .  S
Zr145      O1311   2.402       .  S
Zr145      O1337   2.350       .  S
O146       H1349   0.990       .  S
O147        H192   0.990       .  S
O147       H1348   0.990       .  S
Zr148      O1586   2.476       .  S
Zr148       O149   2.436       .  S
Zr148       O440   2.430       .  S
Zr148       O151   2.404   1_655  S
Zr148      O1312   2.343       .  S
Zr148       O466   2.392   1_655  S
Zr148      O1628   2.389       .  S
O149        H193   0.990       .  S
O149       H1350   0.990       .  S
O150       Zr438   2.432   1_554  S
O150        H183   0.989   1_554  S
O151       Zr171   2.383       .  S
O151      Zr1305   2.422       .  S
O152      Zr1308   2.329       .  S
O152       Zr462   2.394       .  S
O152        H179   0.963       .  S
O153        C155   1.275       .  A
O153      Zr1325   2.377       .  S
O154        C155   1.296       .  A
O154       Zr172   2.474       .  S
C155        C199   1.468       .  S
O156        C158   1.313       .  A
O156       Zr168   2.564   1_455  S
O157        C158   1.285       .  A
O157       Zr461   2.428   1_554  S
C158        C238   1.484       .  S
O159        C161   1.323       .  A
O159      Zr1328   2.618       .  S
O160        C161   1.285       .  A
O160       Zr172   2.434       .  S
C161        C236   1.525       .  S
O162        C164   1.292       .  A
O162       Zr455   2.471       .  S
O163        C164   1.276       .  A
O163       Zr171   2.382       .  S
C164        C229   1.453       .  S
Zr165      O1313   2.384   1_455  S
Zr165       O452   2.454       .  S
Zr165       O166   2.437       .  S
Zr165       O457   2.435   1_554  S
Zr165       O174   2.338       .  S
Zr165      O1333   2.392   1_455  S
Zr165       O467   2.352   1_554  S
Zr165      O1625   2.398   1_454  S
O166        H191   0.990       .  S
O166       H1346   0.990       .  S
O167       Zr455   2.431       .  S
O167       H1347   0.990       .  S
Zr168      O1319   2.608       .  S
Zr168       O169   2.428       .  S
Zr168       O170   2.438       .  S
Zr168       O174   2.382   1_655  S
Zr168       O176   2.409   1_655  S
Zr168      O1333   2.371       .  S
Zr168      O1338   2.365       .  S
O169        H185   0.990       .  S
O170        H194   0.990   1_655  S
O170       H1344   0.990       .  S
Zr171       O447   2.412       .  S
Zr171       O177   2.377       .  S
Zr171       O466   2.405       .  S
Zr171       O464   2.263       .  S
Zr172       O433   2.425   1_554  S
Zr172       O173   2.394       .  S
Zr172       O178   2.389       .  S
Zr172       O442   2.398   1_554  S
Zr172       O465   2.403   1_554  S
O173      Zr1325   2.402       .  S
O173      Zr1328   2.357       .  S
O173        H181   0.965       .  S
O174       Zr461   2.372   1_554  S
O175      Zr1615   2.396       .  S
O175       Zr462   2.396       .  S
O176       Zr438   2.385   1_454  S
O176       Zr461   2.403   1_554  S
O176        H180   0.966       .  S
O177      Zr1305   2.371       .  S
O177       Zr455   2.341       .  S
O177        H182   0.955       .  S
O178      Zr1598   2.383   1_554  S
O178      Zr1328   2.350       .  S
H184       O1330   0.990       .  S
H186       O1326   0.989       .  S
H187       O1327   0.990       .  S
H188       O1307   0.990       .  S
H189       O1306   0.990       .  S
H190       O1309   0.990       .  S
C195        C200   1.393   1_565  A
C195        C486   1.395       .  A
C195        H201   1.081       .  S
C196        C197   1.413   1_565  A
C196        C485   1.398       .  A
C197        C198   1.396       .  A
C197        H202   1.082       .  S
C198        C199   1.399       .  A
C198        H203   1.083       .  S
C199        C490   1.410       .  A
C200        C489   1.408       .  A
C200        H204   1.082       .  S
C205        C210   1.393       .  A
C205        C496   1.397       .  A
C205        H211   1.079       .  S
C206        C409   1.487       .  S
C206        C207   1.410       .  A
C206        C495   1.400       .  A
C207        C208   1.396       .  A
C207        H212   1.082       .  S
C208        C209   1.400       .  A
C208        H213   1.083       .  S
C209        C500   1.408       .  A
C210        C499   1.408       .  A
C210        H214   1.083       .  S
C215        C220   1.398       .  A
C215        C506   1.407       .  A
C215        H221   1.083       .  S
C216        C217   1.383       .  A
C216        C505   1.409       .  A
C217        C218   1.388       .  A
C217        H222   1.054       .  S
C218        C219   1.401   1_554  A
C218        H223   1.082       .  S
C219        C510   1.402       .  A
C220        C509   1.405       .  A
C220        H224   1.083       .  S
C225        C230   1.389       .  A
C225        C516   1.396       .  A
C225        H231   1.084       .  S
C226        C227   1.406       .  A
C226        C515   1.402   1_554  A
C227        C228   1.402       .  A
C227        H232   1.083       .  S
C228        C519   1.403   1_554  A
C228        H233   1.082       .  S
C229        C230   1.400       .  A
C229        C518   1.398       .  A
C230        H234   1.079       .  S
C235        C236   1.261       .  T
C237        C238   1.239       .  T
C239        C240   1.258       .  T
C241        C242   1.255       .  T
C243        C244   1.401       .  A
C243        C248   1.397       .  A
C243        H249   1.081       .  S
C244        C245   1.412       .  A
C245        C246   1.392       .  A
C245        H250   1.082       .  S
C246        C247   1.399       .  A
C246        H251   1.083       .  S
C247        C248   1.409       .  A
C248        H252   1.083       .  S
C253        C254   1.399       .  A
C253        C258   1.394       .  A
C253        H259   1.083       .  S
C254        C255   1.409       .  A
C255        C256   1.398       .  A
C255        H260   1.083       .  S
C256        C257   1.399       .  A
C256        H261   1.078       .  S
C257        C258   1.412       .  A
C258        H262   1.077       .  S
C263        C264   1.403       .  A
C263        C268   1.390       .  A
C263        H269   1.084       .  S
C264        C265   1.406       .  A
C265        C266   1.400   1_455  A
C265        H270   1.083       .  S
C266        C267   1.403   1_655  A
C266        H271   1.076       .  S
C267        C268   1.405       .  A
C268        H272   1.084       .  S
C273        C274   1.403       .  A
C273        C278   1.389       .  A
C273        H279   1.084       .  S
C274        C275   1.400       .  A
C275        C276   1.394       .  A
C275        H280   1.084       .  S
C276        C277   1.405       .  A
C276        H281   1.082       .  S
C277        C278   1.398       .  A
C278        H282   1.082       .  S
C283        C284   1.236       .  T
C285        C286   1.254       .  T
C287        C288   1.252       .  T
C289        C290   1.251       .  T
C291        C573   1.514       .  S
C291        C575   1.545       .  S
C291        C577   1.549       .  S
C291        C580   1.532       .  S
O292        C294   1.293       .  A
O292       Zr884   2.468       .  S
O293        C294   1.276       .  A
O293       Zr330   2.376       .  S
C294        C544   1.470       .  S
O295        C297   1.329       .  A
O295       Zr307   2.640       .  S
O296        C297   1.274       .  A
O296       Zr331   2.382       .  S
C297        C578   1.510       .  S
O298        C300   1.317       .  A
O298       Zr887   2.592   1_545  S
O299        C300   1.282       .  A
O299       Zr330   2.422       .  S
C300        C579   1.503       .  S
O301        C303   1.282       .  A
O301       Zr304   2.417       .  S
O302        C303   1.290       .  A
O302       Zr331   2.437       .  S
C303        C554   1.471       .  S
Zr304       O872   2.467       .  S
Zr304       O305   2.433       .  S
Zr304       O306   2.435       .  S
Zr304       O890   2.347       .  S
Zr304       O311   2.392       .  S
Zr304       O334   2.403       .  S
Zr304       O916   2.358       .  S
O305        H928   0.990       .  S
O306        H927   0.990       .  S
O306        H351   0.990       .  S
Zr307       O878   2.609       .  S
Zr307       O308   2.437       .  S
Zr307       O309   2.436       .  S
Zr307       O311   2.375       .  S
Zr307       O890   2.368       .  S
Zr307       O915   2.413       .  S
Zr307       O337   2.375       .  S
O308        H349   0.990       .  S
O308        H352   0.990       .  S
O309        H922   0.990       .  S
O310       Zr884   2.349       .  S
O310       Zr887   2.374   1_545  S
O310       Zr330   2.374       .  S
O311       Zr331   2.392       .  S
O311        H338   0.965       .  S
O312        C314   1.324       .  A
O312       Zr904   2.614       .  S
O313        C314   1.284       .  A
O313       Zr331   2.428       .  S
C314        C529   1.516       .  S
O315        C317   1.278       .  A
O315       Zr907   2.400   1_545  S
O316        C317   1.289       .  A
O316       Zr330   2.436       .  S
C317        C564   1.467       .  S
O318        C320   1.289       .  A
O318       Zr327   2.449       .  S
O319        C320   1.280       .  A
O319       Zr331   2.402       .  S
C320        C537   1.474       .  S
O321        C323   1.328       .  A
O321       Zr324   2.642       .  S
O322        C323   1.278       .  A
O322       Zr330   2.401       .  S
C323        C531   1.512       .  S
Zr324       O892   2.622   1_545  S
Zr324       O325   2.433       .  S
Zr324       O326   2.435       .  S
Zr324       O912   2.395   1_545  S
Zr324       O336   2.386       .  S
Zr324       O914   2.412   1_545  S
Zr324       O333   2.297       .  S
O325        H925   0.990   1_545  S
O325        H350   0.988       .  S
O326        H926   0.990       .  S
Zr327       O895   2.391       .  S
Zr327       O328   2.438       .  S
Zr327       O329   2.424       .  S
Zr327       O913   2.392       .  S
Zr327       O332   2.333       .  S
Zr327       O337   2.355       .  S
Zr327       O915   2.388       .  S
O328        H924   0.990       .  S
O329        H343   0.990       .  S
O329        H353   0.990       .  S
Zr330       O335   2.397       .  S
Zr330       O336   2.391       .  S
Zr330       O333   2.264       .  S
Zr331       O332   2.382       .  S
Zr331       O334   2.392       .  S
Zr331       O337   2.381       .  S
O332       Zr904   2.397       .  S
O332        H340   0.959       .  S
O333       Zr907   2.290   1_545  S
O334       Zr904   2.413       .  S
O335       Zr887   2.415   1_545  S
O335       Zr907   2.384   1_545  S
O335        H339   0.966       .  S
O336       Zr884   2.362       .  S
O336        H341   0.964       .  S
H342        O889   0.990   1_545  S
H344        O908   0.990       .  S
H345        O905   0.988       .  S
H346        O906   0.990       .  S
H347        O886   0.990       .  S
H348        O885   0.990       .  S
N354        C359   1.350       .  A
N354        C358   1.350       .  A
N354        H386   1.042       .  S
N355       C1522   1.338       .  A
N355        C363   1.336       .  A
N356        C361   1.348       .  A
N356        C360   1.351       .  A
N356        H387   1.035       .  S
N357       C1524   1.342       .  A
N357        C365   1.339       .  A
C358        C366   1.389       .  A
C358        C374   1.415       .  A
C359        C375   1.407       .  A
C359        C367   1.383       .  A
C360        C368   1.395       .  A
C360        C377   1.432   1_455  A
C361        C376   1.398       .  A
C361        C369   1.373       .  A
C362       N1515   1.343       .  A
C362        C374   1.407       .  A
C362        C370   1.393       .  A
C363        C377   1.403       .  A
C363        C371   1.381       .  A
C364       N1517   1.343       .  A
C364        C372   1.378       .  A
C364        C375   1.393       .  A
C365        C373   1.389       .  A
C365        C376   1.401       .  A
C366        C367   1.376       .  A
C366        H378   1.082       .  S
C367        H379   1.081       .  S
C368        C369   1.376       .  A
C368        H380   1.077       .  S
C369        H381   1.082       .  S
C370       C1531   1.383       .  A
C370        H382   1.082       .  S
C371       C1530   1.388       .  A
C371        H383   1.082       .  S
C372       C1533   1.382       .  A
C372        H384   1.080       .  S
C373       C1532   1.387       .  A
C373        H385   1.081       .  S
C374        C534   1.484       .  S
C375        C567   1.469       .  S
C376        C547   1.486       .  S
C377        C557   1.479   1_655  S
C388        C525   1.555       .  S
C388        C527   1.512       .  S
C388        C530   1.548       .  S
C388        C532   1.547       .  S
N389        C974   1.344       .  A
N389        C393   1.348       .  A
N389        H421   1.044       .  S
N390        C397   1.352       .  A
N390        C398   1.346       .  A
N391        C976   1.342       .  A
N391        C395   1.345       .  A
N391        H422   1.041       .  S
N392        C399   1.345       .  A
N392        C400   1.346   1_545  A
C393        C401   1.372       .  A
C393        C409   1.389       .  A
C394        N969   1.341       .  A
C394        C410   1.398       .  A
C394        C402   1.382       .  A
C395        C403   1.385       .  A
C395        C412   1.415       .  A
C396        N971   1.342       .  A
C396        C411   1.398       .  A
C396        C404   1.385       .  A
C397        C409   1.411       .  A
C397        C405   1.385       .  A
C398        C412   1.395       .  A
C398        C406   1.375       .  A
C399        C407   1.379       .  A
C399        C410   1.395       .  A
C400        C408   1.393   1_565  A
C400        C411   1.414       .  A
C401        C982   1.374       .  A
C401        H413   1.080       .  S
C402        C981   1.375       .  A
C402        H414   1.082       .  S
C403        C984   1.382       .  A
C403        H415   1.069       .  S
C404        C983   1.381       .  A
C404        H416   1.082       .  S
C405        C406   1.362       .  A
C405        H417   1.080       .  S
C406        H418   1.067       .  S
C407        C408   1.380       .  A
C407        H419   1.082       .  S
C408        H420   1.082       .  S
C410        C516   1.469       .  S
C411        C486   1.471       .  S
C412        C506   1.483       .  S
O423        C425   1.324       .  A
O423      Zr1595   2.620       .  S
O424        C425   1.281       .  A
O424       Zr461   2.411       .  S
C425        C576   1.508       .  S
O426        C428   1.291       .  A
O426      Zr1308   2.451       .  S
O427        C428   1.282       .  A
O427       Zr462   2.395       .  S
C428        C509   1.478       .  S
O429        C431   1.281       .  A
O429       Zr438   2.414   1_455  S
O430        C431   1.287       .  A
O430       Zr461   2.422       .  S
C431        C499   1.472       .  S
O432        C434   1.313       .  A
O432       Zr435   2.564       .  S
O433        C434   1.285       .  A
C434        C574   1.484       .  S
Zr435      O1583   2.593       .  S
Zr435       O436   2.426       .  S
Zr435       O437   2.434       .  S
Zr435      O1601   2.412       .  S
Zr435       O442   2.386       .  S
Zr435       O465   2.417       .  S
Zr435      O1627   2.372       .  S
O436       H1639   0.990       .  S
O437       H1638   0.990       .  S
O437        H482   0.990       .  S
Zr438      O1296   2.457       .  S
Zr438       O439   2.440       .  S
Zr438      O1602   2.333       .  S
Zr438       O441   2.387   1_655  S
Zr438      O1338   2.376   1_556  S
O439       H1640   0.990       .  S
O439        H483   0.990       .  S
O440        H473   0.990       .  S
O441      Zr1595   2.395       .  S
O441       Zr461   2.386       .  S
O442      Zr1598   2.348       .  S
O442        H469   0.961       .  S
O443        C445   1.279       .  A
O443      Zr1615   2.397       .  S
O444        C445   1.291       .  A
O444       Zr462   2.442       .  S
C445        C489   1.466       .  S
O446        C448   1.309       .  A
O446       Zr458   2.548   1_455  S
O447        C448   1.282       .  A
C448        C528   1.482       .  S
O449        C451   1.321       .  A
O449      Zr1618   2.609       .  S
O450        C451   1.286       .  A
O450       Zr462   2.436       .  S
C451        C526   1.520       .  S
O452        C454   1.291   1_554  A
O453        C454   1.280       .  A
O453       Zr461   2.404       .  S
C454        C519   1.462       .  S
Zr455      O1603   2.371   1_455  S
Zr455       O456   2.441       .  S
Zr455      O1623   2.402   1_455  S
Zr455      O1335   2.406   1_455  S
Zr455       O464   2.235       .  S
O456       H1636   0.989       .  S
O456        H481   0.990       .  S
O457       H1637   0.990   1_556  S
Zr458      O1609   2.610       .  S
Zr458       O459   2.428       .  S
Zr458       O460   2.441       .  S
Zr458      O1623   2.356       .  S
Zr458      O1628   2.359       .  S
Zr458       O466   2.393   1_655  S
Zr458       O464   2.282   1_655  S
O459        H475   0.989   1_655  S
O460       H1634   0.990   1_655  S
O460        H484   0.990       .  S
Zr461       O467   2.383       .  S
Zr462       O463   2.379       .  S
Zr462       O468   2.377       .  S
O463      Zr1615   2.393       .  S
O463      Zr1618   2.367       .  S
O463        H471   0.965       .  S
O465      Zr1325   2.399   1_556  S
O466        H470   0.963       .  S
O467      Zr1595   2.361       .  S
O467        H472   0.962       .  S
O468      Zr1308   2.373       .  S
O468      Zr1618   2.370       .  S
H474       O1620   0.990       .  S
H476       O1616   0.990       .  S
H477       O1617   0.990       .  S
H478       O1597   0.990       .  S
H479       O1596   0.989       .  S
H480       O1599   0.990       .  S
C485        C490   1.393   1_565  A
C485        H491   1.084       .  S
C486        C487   1.407   1_565  A
C487        C488   1.390       .  A
C487        H492   1.081       .  S
C488        C489   1.399       .  A
C488        H493   1.082       .  S
C490        H494   1.082       .  S
C495        C500   1.400       .  A
C495        H501   1.083       .  S
C496        C497   1.406       .  A
C497        C498   1.392       .  A
C497        H502   1.079       .  S
C498        C499   1.402       .  A
C498        H503   1.083       .  S
C500        H504   1.081       .  S
C505        C510   1.397   1_554  A
C505        H511   1.077   1_554  S
C506        C507   1.396       .  A
C507        C508   1.390       .  A
C507        H512   1.077       .  S
C508        C509   1.406       .  A
C508        H513   1.080       .  S
C510        H514   1.083       .  S
C515        C520   1.389       .  A
C515        H521   1.084       .  S
C516        C517   1.410       .  A
C517        C518   1.401       .  A
C517        H522   1.081       .  S
C518        H523   1.083       .  S
C519        C520   1.400       .  A
C520        H524   1.084       .  S
C525        C526   1.257       .  T
C527        C528   1.236       .  T
C529        C530   1.256       .  T
C531        C532   1.255       .  T
C533        C534   1.401       .  A
C533        C538   1.398       .  A
C533        H539   1.082       .  S
C534        C535   1.409       .  A
C535        C536   1.392       .  A
C535        H540   1.083       .  S
C536        C537   1.401       .  A
C536        H541   1.084       .  S
C537        C538   1.408       .  A
C538        H542   1.083       .  S
C543        C544   1.397       .  A
C543        C548   1.392       .  A
C543        H549   1.084       .  S
C544        C545   1.409       .  A
C545        C546   1.394       .  A
C545        H550   1.083       .  S
C546        C547   1.398       .  A
C546        H551   1.080       .  S
C547        C548   1.414       .  A
C548        H552   1.077       .  S
C553        C554   1.401       .  A
C553        C558   1.392       .  A
C553        H559   1.084       .  S
C554        C555   1.407       .  A
C555        C556   1.401   1_455  A
C555        H560   1.083       .  S
C556        C557   1.403   1_655  A
C556        H561   1.080       .  S
C557        C558   1.407       .  A
C558        H562   1.083       .  S
C563        C564   1.405       .  A
C563        C568   1.393       .  A
C563        H569   1.083       .  S
C564        C565   1.402       .  A
C565        C566   1.396       .  A
C565        H570   1.083       .  S
C566        C567   1.405       .  A
C566        H571   1.083       .  S
C567        C568   1.400       .  A
C568        H572   1.082       .  S
C573        C574   1.237       .  T
C575        C576   1.252       .  T
C577        C578   1.255       .  T
C579        C580   1.248       .  T
C581        C863   1.520       .  S
C581        C865   1.548       .  S
C581        C867   1.546       .  S
C581        C870   1.536       .  S
O582        C584   1.293       .  A
O583        C584   1.278       .  A
O583       Zr620   2.385       .  S
C584        C834   1.472       .  S
O585        C587   1.328       .  A
O585       Zr597   2.636       .  S
O586        C587   1.275       .  A
O586       Zr621   2.386       .  S
C587        C868   1.509       .  S
O588        C590   1.318       .  A
O589        C590   1.284       .  A
O589       Zr620   2.426       .  S
C590        C869   1.507       .  S
O591        C593   1.279       .  A
O591       Zr594   2.406   1_565  S
O592        C593   1.291       .  A
O592       Zr621   2.439       .  S
C593        C844   1.467       .  S
Zr594       O595   2.436       .  S
Zr594       O596   2.436       .  S
Zr594       O601   2.395   1_545  S
Zr594       O624   2.410   1_545  S
O596        H641   0.990       .  S
Zr597       O598   2.439       .  S
Zr597       O599   2.438       .  S
Zr597       O601   2.380       .  S
Zr597       O627   2.371       .  S
O598        H639   0.990       .  S
O598        H642   0.990   1_565  S
O600       Zr620   2.371       .  S
O601       Zr621   2.392       .  S
O601        H628   0.964       .  S
O602        C604   1.322       .  A
O603        C604   1.286       .  A
O603       Zr621   2.438       .  S
C604        C819   1.518       .  S
O605        C607   1.281       .  A
O606        C607   1.290       .  A
O606       Zr620   2.443       .  S
C607        C854   1.472       .  S
O608        C610   1.289       .  A
O608       Zr617   2.449       .  S
O609        C610   1.280       .  A
O609       Zr621   2.402       .  S
C610        C827   1.472       .  S
O611        C613   1.329       .  A
O611       Zr614   2.644       .  S
O612        C613   1.275       .  A
O612       Zr620   2.385       .  S
C613        C821   1.507       .  S
Zr614       O615   2.416       .  S
Zr614       O616   2.435       .  S
Zr614       O623   2.391       .  S
Zr614       O626   2.383       .  S
O615        H640   0.988       .  S
Zr617       O618   2.436       .  S
Zr617       O619   2.421       .  S
Zr617       O622   2.332       .  S
Zr617       O627   2.351       .  S
O619        H633   0.990       .  S
O619        H643   0.990       .  S
Zr620       O623   2.373       .  S
Zr620       O625   2.397       .  S
Zr620       O626   2.391       .  S
Zr621       O622   2.377       .  S
Zr621       O624   2.394       .  S
Zr621       O627   2.381       .  S
O622        H630   0.963       .  S
O625        H629   0.965       .  S
O626        H631   0.963       .  S
N644        C649   1.350       .  A
N644        C648   1.350       .  A
N644        H676   1.043       .  S
N645       C1812   1.339       .  A
N645        C653   1.334       .  A
N646        C651   1.351       .  A
N646        C650   1.353       .  A
N646        H677   1.034       .  S
N647       C1814   1.341       .  A
N647        C655   1.337       .  A
C648        C656   1.389       .  A
C648        C664   1.414       .  A
C649        C665   1.405       .  A
C649        C657   1.381       .  A
C650        C658   1.395       .  A
C650        C667   1.437   1_455  A
C651        C666   1.400       .  A
C651        C659   1.373       .  A
C652       N1805   1.342       .  A
C652        C664   1.402       .  A
C652        C660   1.390       .  A
C653        C667   1.401       .  A
C653        C661   1.381       .  A
C654       N1807   1.346       .  A
C654        C662   1.380       .  A
C654        C665   1.398       .  A
C655        C663   1.389       .  A
C655        C666   1.399       .  A
C656        C657   1.376       .  A
C656        H668   1.083       .  S
C657        H669   1.081       .  S
C658        C659   1.374       .  A
C658        H670   1.075       .  S
C659        H671   1.083       .  S
C660       C1821   1.387       .  A
C660        H672   1.081       .  S
C661       C1820   1.386       .  A
C661        H673   1.082       .  S
C662       C1823   1.386       .  A
C662        H674   1.082       .  S
C663       C1822   1.386       .  A
C663        H675   1.081       .  S
C664        C824   1.483       .  S
C665        C857   1.471       .  S
C666        C837   1.481       .  S
C667        C847   1.474   1_655  S
C678        C815   1.554       .  S
C678        C817   1.510       .  S
C678        C820   1.550       .  S
C678        C822   1.543       .  S
N679        C683   1.348       .  A
N679        H711   1.042   1_545  S
N680        C687   1.350       .  A
N680        C688   1.344       .  A
N681        C685   1.347       .  A
N681        H712   1.041       .  S
N682        C689   1.339   1_554  A
N682        C690   1.334       .  A
C683        C691   1.374       .  A
C683        C699   1.392   1_545  A
C684        C700   1.401   1_554  A
C684        C692   1.383       .  A
C685        C693   1.387       .  A
C685        C702   1.419       .  A
C686        C701   1.407       .  A
C686        C694   1.383       .  A
C687        C699   1.412       .  A
C687        C695   1.385       .  A
C688        C702   1.395       .  A
C688        C696   1.379       .  A
C689        C697   1.377       .  A
C689        C700   1.391       .  A
C690        C698   1.397       .  A
C690        C701   1.419       .  A
C691        H703   1.082       .  S
C692        H704   1.082       .  S
C693        H705   1.073       .  S
C694        H706   1.082       .  S
C695        C696   1.363       .  A
C695        H707   1.081       .  S
C696        H708   1.070       .  S
C697        C698   1.380   1_556  A
C697        H709   1.082       .  S
C698        H710   1.079       .  S
C699       C1076   1.487       .  S
C700        C806   1.466       .  S
C701        C776   1.473       .  S
C702        C796   1.482       .  S
O713        C715   1.324       .  A
O713      Zr1885   2.622       .  S
O714        C715   1.283       .  A
O714       Zr751   2.421       .  S
C715        C866   1.513       .  S
O716        C718   1.291       .  A
O716      Zr2178   2.451       .  S
O717        C718   1.281       .  A
O717       Zr752   2.392       .  S
C718        C799   1.476       .  S
O719        C721   1.278       .  A
O719       Zr728   2.397   1_455  S
O720        C721   1.291       .  A
O720       Zr751   2.442       .  S
C721        C789   1.471       .  S
O722        C724   1.315       .  A
O722       Zr725   2.574       .  S
O723        C724   1.285       .  A
O723      Zr1042   2.425       .  S
C724        C864   1.490       .  S
Zr725      O1873   2.583       .  S
Zr725       O726   2.418       .  S
Zr725       O727   2.435       .  S
Zr725      O1891   2.419       .  S
Zr725       O732   2.380       .  S
Zr725       O755   2.399       .  S
Zr725      O1917   2.359       .  S
O726       H1929   0.990       .  S
O727       H1928   0.990       .  S
O727        H772   0.990       .  S
Zr728      O2166   2.446       .  S
Zr728       O729   2.440       .  S
Zr728      O1020   2.430       .  S
Zr728      O1892   2.320       .  S
Zr728       O731   2.393   1_655  S
Zr728      O1046   2.384   1_655  S
Zr728      O2208   2.376       .  S
O729       H1930   0.990       .  S
O729        H773   0.990       .  S
O730      Zr1018   2.431       .  S
O730        H763   0.990   1_556  S
O731      Zr1885   2.402       .  S
O731       Zr751   2.381       .  S
O732      Zr1888   2.344       .  S
O732      Zr1042   2.397       .  S
O732        H759   0.960       .  S
O733        C735   1.279       .  A
O733      Zr1905   2.396       .  S
O734        C735   1.293       .  A
O734       Zr752   2.451   1_554  S
C735        C779   1.466       .  S
O736        C738   1.313       .  A
O736       Zr748   2.561   1_455  S
O737        C738   1.283       .  A
O737      Zr1041   2.420   1_554  S
C738        C818   1.479       .  S
O739        C741   1.322       .  A
O739      Zr1908   2.613       .  S
O740        C741   1.284       .  A
O740       Zr752   2.429   1_554  S
C741        C816   1.519       .  S
O742        C744   1.294       .  A
O742      Zr1035   2.470       .  S
O743        C744   1.278       .  A
O743       Zr751   2.394       .  S
C744        C809   1.460       .  S
Zr745      O1893   2.369   1_455  S
Zr745      O1032   2.463       .  S
Zr745       O746   2.436       .  S
Zr745      O1037   2.430   1_554  S
Zr745      O1913   2.401   1_455  S
Zr745       O754   2.324       .  S
Zr745      O1047   2.332   1_554  S
Zr745      O2205   2.396   1_454  S
O746       H1926   0.990       .  S
O746        H771   0.990       .  S
O747      Zr1035   2.437       .  S
O747       H1927   0.990       .  S
Zr748      O1899   2.607       .  S
Zr748       O749   2.425       .  S
Zr748       O750   2.438       .  S
Zr748       O754   2.378   1_655  S
Zr748      O1913   2.363       .  S
Zr748      O1918   2.363       .  S
Zr748       O756   2.389   1_655  S
O749        H765   0.989       .  S
O750       H1924   0.990       .  S
O750        H774   0.990   1_655  S
Zr751      O1027   2.414       .  S
Zr751      O1044   2.381       .  S
Zr751      O1046   2.398       .  S
Zr751       O757   2.382       .  S
Zr752      O1013   2.418       .  S
Zr752      O1022   2.390       .  S
Zr752       O753   2.381   1_556  S
Zr752      O1045   2.396       .  S
Zr752       O758   2.385   1_556  S
O753      Zr1905   2.400       .  S
O753      Zr1908   2.357       .  S
O753        H761   0.964       .  S
O754      Zr1041   2.372   1_554  S
O755      Zr2195   2.400       .  S
O755      Zr1042   2.395       .  S
O756      Zr1018   2.387   1_454  S
O756      Zr1041   2.408   1_554  S
O756        H760   0.963       .  S
O757      Zr1885   2.356       .  S
O757      Zr1035   2.351       .  S
O757        H762   0.961       .  S
O758      Zr2178   2.379   1_554  S
O758      Zr1908   2.366       .  S
H764       O1910   0.990       .  S
H766       O1906   0.990       .  S
H767       O1907   0.990       .  S
H768       O1887   0.990       .  S
H769       O1886   0.990       .  S
H770       O1889   0.990       .  S
C775       C1066   1.397       .  A
C775        C780   1.391       .  A
C775        H781   1.084       .  S
C776       C1065   1.399       .  A
C776        C777   1.408       .  A
C777        C778   1.388       .  A
C777        H782   1.080       .  S
C778        C779   1.398       .  A
C778        H783   1.084       .  S
C779       C1070   1.408       .  A
C780       C1069   1.409       .  A
C780        H784   1.081       .  S
C785       C1076   1.400       .  A
C785        C790   1.401       .  A
C785        H791   1.083       .  S
C786        C989   1.483       .  S
C786       C1075   1.399       .  A
C786        C787   1.407   1_545  A
C787        C788   1.393       .  A
C787        H792   1.080       .  S
C788        C789   1.399       .  A
C788        H793   1.083       .  S
C789       C1080   1.409       .  A
C790       C1079   1.408   1_554  A
C790        H794   1.081       .  S
C795       C1086   1.408       .  A
C795        C800   1.403       .  A
C795        H801   1.080       .  S
C796       C1085   1.407       .  A
C796        C797   1.397       .  A
C797        C798   1.390   1_554  A
C797        H802   1.076       .  S
C798        C799   1.407       .  A
C798        H803   1.081       .  S
C799       C1090   1.403       .  A
C800       C1089   1.403       .  A
C800        H804   1.083       .  S
C805       C1096   1.402       .  A
C805        C810   1.391       .  A
C805        H811   1.084       .  S
C806       C1095   1.398       .  A
C806        C807   1.410       .  A
C807        C808   1.400   1_556  A
C807        H812   1.083   1_556  S
C808       C1099   1.398   1_554  A
C808        H813   1.083       .  S
C809       C1098   1.401       .  A
C809        C810   1.399       .  A
C810        H814   1.084       .  S
C815        C816   1.257       .  T
C817        C818   1.235       .  T
C819        C820   1.257       .  T
C821        C822   1.253       .  T
C823        C824   1.401       .  A
C823        C828   1.397       .  A
C823        H829   1.080       .  S
C824        C825   1.409       .  A
C825        C826   1.391       .  A
C825        H830   1.083       .  S
C826        C827   1.401       .  A
C826        H831   1.083       .  S
C827        C828   1.406       .  A
C828        H832   1.083       .  S
C833        C834   1.399       .  A
C833        C838   1.394       .  A
C833        H839   1.083       .  S
C834        C835   1.408       .  A
C835        C836   1.393       .  A
C835        H840   1.083       .  S
C836        C837   1.395       .  A
C836        H841   1.076       .  S
C837        C838   1.412       .  A
C838        H842   1.081       .  S
C843        C844   1.399       .  A
C843        C848   1.387       .  A
C843        H849   1.084       .  S
C844        C845   1.408       .  A
C845        C846   1.400   1_455  A
C845        H850   1.083       .  S
C846        C847   1.402   1_655  A
C846        H851   1.079       .  S
C847        C848   1.405       .  A
C848        H852   1.082       .  S
C853        C854   1.404       .  A
C853        C858   1.395       .  A
C853        H859   1.083       .  S
C854        C855   1.403       .  A
C855        C856   1.398       .  A
C855        H860   1.083       .  S
C856        C857   1.405       .  A
C856        H861   1.082       .  S
C857        C858   1.403       .  A
C858        H862   1.083       .  S
C863        C864   1.241       .  T
C865        C866   1.254       .  T
C867        C868   1.254       .  T
C869        C870   1.250       .  T
C871       C1153   1.520       .  S
C871       C1155   1.552       .  S
C871       C1157   1.542       .  S
C871       C1160   1.544       .  S
O872        C874   1.294       .  A
O873        C874   1.279       .  A
O873       Zr910   2.388       .  S
C874       C1124   1.474       .  S
O875        C877   1.326       .  A
O875       Zr887   2.629       .  S
O876        C877   1.276       .  A
O876       Zr911   2.385       .  S
C877       C1158   1.506       .  S
O878        C880   1.322       .  A
O879        C880   1.285       .  A
O879       Zr910   2.430       .  S
C880       C1159   1.513       .  S
O881        C883   1.282       .  A
O881       Zr884   2.422   1_565  S
O882        C883   1.290       .  A
O882       Zr911   2.430       .  S
C883       C1134   1.468       .  S
Zr884       O885   2.437       .  S
Zr884       O886   2.433       .  S
Zr884       O891   2.394   1_545  S
Zr884       O914   2.412   1_545  S
O886        H931   0.990       .  S
Zr887       O888   2.438       .  S
Zr887       O889   2.434       .  S
Zr887       O891   2.363       .  S
Zr887       O917   2.373       .  S
O888        H929   0.990       .  S
O888        H932   0.990       .  S
O890       Zr910   2.377       .  S
O891       Zr911   2.390       .  S
O891        H918   0.965       .  S
O892        C894   1.325       .  A
O893        C894   1.283       .  A
O893       Zr911   2.428       .  S
C894       C1109   1.521       .  S
O895        C897   1.276       .  A
O896        C897   1.292       .  A
O896       Zr910   2.449       .  S
C897       C1144   1.462       .  S
O898        C900   1.290       .  A
O898       Zr907   2.456       .  S
O899        C900   1.279       .  A
O899       Zr911   2.395       .  S
C900       C1117   1.477       .  S
O901        C903   1.331       .  A
O901       Zr904   2.655       .  S
O902        C903   1.280       .  A
O902       Zr910   2.408       .  S
C903       C1111   1.521       .  S
Zr904       O905   2.426       .  S
Zr904       O906   2.434       .  S
Zr904       O913   2.387       .  S
Zr904       O916   2.376       .  S
O905        H930   0.987       .  S
Zr907       O908   2.435       .  S
Zr907       O909   2.423       .  S
Zr907       O912   2.331       .  S
Zr907       O917   2.349       .  S
O909        H923   0.990       .  S
O909        H933   0.990       .  S
Zr910       O913   2.375       .  S
Zr910       O915   2.402       .  S
Zr910       O916   2.390       .  S
Zr911       O912   2.388       .  S
Zr911       O914   2.396       .  S
Zr911       O917   2.382       .  S
O912        H920   0.962       .  S
O915        H919   0.968       .  S
O916        H921   0.964       .  S
N934        C939   1.354       .  A
N934        C938   1.351       .  A
N934        H966   1.042       .  S
N935       C2102   1.341       .  A
N935        C943   1.336       .  A
N936        C941   1.352       .  A
N936        C940   1.352       .  A
N936        H967   1.035       .  S
N937       C2104   1.339       .  A
N937        C945   1.338       .  A
C938        C946   1.392       .  A
C938        C954   1.421       .  A
C939        C955   1.410       .  A
C939        C947   1.383       .  A
C940        C948   1.394       .  A
C940        C957   1.435   1_455  A
C941        C956   1.398       .  A
C941        C949   1.374       .  A
C942       N2095   1.338       .  A
C942        C954   1.407       .  A
C942        C950   1.393       .  A
C943        C957   1.400       .  A
C943        C951   1.382       .  A
C944       N2097   1.340       .  A
C944        C952   1.381       .  A
C944        C955   1.392       .  A
C945        C953   1.388       .  A
C945        C956   1.394       .  A
C946        C947   1.377       .  A
C946        H958   1.082       .  S
C947        H959   1.083       .  S
C948        C949   1.373       .  A
C948        H960   1.074       .  S
C949        H961   1.083       .  S
C950       C2111   1.388       .  A
C950        H962   1.081       .  S
C951       C2110   1.385       .  A
C951        H963   1.082       .  S
C952       C2113   1.384       .  A
C952        H964   1.082       .  S
C953       C2112   1.383       .  A
C953        H965   1.079       .  S
C954       C1114   1.485       .  S
C955       C1147   1.466       .  S
C956       C1127   1.483       .  S
C957       C1137   1.476   1_655  S
C968       C1105   1.545       .  S
C968       C1107   1.511       .  S
C968       C1110   1.553       .  S
C968       C1112   1.557       .  S
N969        C973   1.349       .  A
N969       H1001   1.044       .  S
N970        C977   1.350       .  A
N970        C978   1.347       .  A
N971        C975   1.344       .  A
N971       H1002   1.039       .  S
N972        C979   1.346       .  A
N972        C980   1.347       .  A
C973        C981   1.387       .  A
C973        C989   1.399       .  A
C974        C990   1.414       .  A
C974        C982   1.395       .  A
C975        C983   1.377       .  A
C975        C992   1.404       .  A
C976        C991   1.398       .  A
C976        C984   1.382       .  A
C977        C989   1.418   1_565  A
C977        C985   1.392       .  A
C978        C992   1.397       .  A
C978        C986   1.376       .  A
C979        C987   1.382       .  A
C979        C990   1.405       .  A
C980        C988   1.391       .  A
C980        C991   1.412       .  A
C981        H993   1.082       .  S
C982        H994   1.077       .  S
C983        H995   1.070       .  S
C984        H996   1.081       .  S
C985        C986   1.372       .  A
C985        H997   1.081       .  S
C986        H998   1.073       .  S
C987        C988   1.381       .  A
C987        H999   1.082       .  S
C988       H1000   1.082       .  S
C990       C1096   1.475       .  S
C991       C1066   1.473       .  S
C992       C1086   1.481       .  S
O1003      C1005   1.320       .  A
O1003     Zr2175   2.603       .  S
O1004      C1005   1.291       .  A
O1004     Zr1041   2.461       .  S
C1005      C1156   1.519       .  S
O1006      C1008   1.293       .  A
O1006     Zr1888   2.467       .  S
O1007      C1008   1.282       .  A
O1007     Zr1042   2.392       .  S
C1008      C1089   1.473       .  S
O1009      C1011   1.289       .  A
O1009     Zr1018   2.453   1_455  S
O1010      C1011   1.286       .  A
O1010     Zr1041   2.422       .  S
C1011      C1079   1.477       .  S
O1012      C1014   1.316       .  A
O1012     Zr1015   2.581       .  S
O1013      C1014   1.283       .  A
C1014      C1154   1.490       .  S
Zr1015     O2163   2.605       .  S
Zr1015     O1016   2.420       .  S
Zr1015     O1017   2.434       .  S
Zr1015     O2181   2.402       .  S
Zr1015     O1022   2.383       .  S
Zr1015     O1045   2.410       .  S
Zr1015     O2207   2.359       .  S
O1016      H2219   0.990       .  S
O1017      H2218   0.990       .  S
O1017      H1062   0.990       .  S
Zr1018     O1876   2.474       .  S
Zr1018     O1019   2.437       .  S
Zr1018     O2182   2.347       .  S
Zr1018     O1021   2.399   1_655  S
Zr1018     O1918   2.387   1_556  S
O1019      H2220   0.990       .  S
O1019      H1063   0.990       .  S
O1020      H1053   0.990       .  S
O1021     Zr2175   2.416       .  S
O1021     Zr1041   2.391       .  S
O1022     Zr2178   2.331       .  S
O1022      H1049   0.963       .  S
O1023      C1025   1.275       .  A
O1023     Zr2195   2.372       .  S
O1024      C1025   1.296       .  A
O1024     Zr1042   2.470       .  S
C1025      C1069   1.463       .  S
O1026      C1028   1.313       .  A
O1026     Zr1038   2.562   1_455  S
O1027      C1028   1.281       .  A
C1028      C1108   1.479       .  S
O1029      C1031   1.317       .  A
O1029     Zr2198   2.591       .  S
O1030      C1031   1.285       .  A
O1030     Zr1042   2.432       .  S
C1031      C1106   1.511       .  S
O1032      C1034   1.292   1_554  A
O1033      C1034   1.277       .  A
O1033     Zr1041   2.384       .  S
C1034      C1099   1.450       .  S
Zr1035     O2183   2.411   1_455  S
Zr1035     O1036   2.435       .  S
Zr1035     O2203   2.394   1_455  S
Zr1035     O1044   2.346       .  S
Zr1035     O1915   2.395   1_455  S
O1036      H2216   0.990       .  S
O1036      H1061   0.990       .  S
O1037      H2217   0.990       .  S
Zr1038     O2189   2.610       .  S
Zr1038     O1039   2.433       .  S
Zr1038     O1040   2.439       .  S
Zr1038     O1044   2.382   1_655  S
Zr1038     O2203   2.373       .  S
Zr1038     O2208   2.369       .  S
Zr1038     O1046   2.408   1_655  S
O1039      H1055   0.990   1_655  S
O1040      H2214   0.990       .  S
O1040      H1064   0.990       .  S
Zr1041     O1047   2.374       .  S
Zr1042     O1043   2.389       .  S
Zr1042     O1048   2.385       .  S
O1043     Zr2195   2.405       .  S
O1043     Zr2198   2.365       .  S
O1043      H1051   0.965       .  S
O1045     Zr1905   2.401   1_556  S
O1046      H1050   0.967       .  S
O1047     Zr2175   2.351       .  S
O1047      H1052   0.957       .  S
O1048     Zr1888   2.387       .  S
O1048     Zr2198   2.364       .  S
H1054      O2200   0.990       .  S
H1056      O2196   0.990       .  S
H1057      O2197   0.990   1_554  S
H1058      O2177   0.990   1_655  S
H1059      O2176   0.990       .  S
H1060      O2179   0.990       .  S
C1065      C1070   1.397       .  A
C1065      H1071   1.082       .  S
C1066      C1067   1.412       .  A
C1067      C1068   1.395       .  A
C1067      H1072   1.081       .  S
C1068      C1069   1.398       .  A
C1068      H1073   1.083       .  S
C1070      H1074   1.081       .  S
C1075      C1080   1.394   1_545  A
C1075      H1081   1.080       .  S
C1076      C1077   1.410       .  A
C1077      C1078   1.395   1_554  A
C1077      H1082   1.082       .  S
C1078      C1079   1.402       .  A
C1078      H1083   1.083       .  S
C1080      H1084   1.084       .  S
C1085      C1090   1.396   1_554  A
C1085      H1091   1.081       .  S
C1086      C1087   1.392       .  A
C1087      C1088   1.387       .  A
C1087      H1092   1.073       .  S
C1088      C1089   1.404       .  A
C1088      H1093   1.081       .  S
C1090      H1094   1.083       .  S
C1095      C1100   1.390       .  A
C1095      H1101   1.084       .  S
C1096      C1097   1.407       .  A
C1097      C1098   1.402       .  A
C1097      H1102   1.083       .  S
C1098      H1103   1.082       .  S
C1099      C1100   1.401       .  A
C1100      H1104   1.082       .  S
C1105      C1106   1.252       .  T
C1107      C1108   1.236       .  T
C1109      C1110   1.259       .  T
C1111      C1112   1.260       .  T
C1113      C1114   1.402       .  A
C1113      C1118   1.399       .  A
C1113      H1119   1.081       .  S
C1114      C1115   1.409       .  A
C1115      C1116   1.392       .  A
C1115      H1120   1.084       .  S
C1116      C1117   1.401       .  A
C1116      H1121   1.083       .  S
C1117      C1118   1.409       .  A
C1118      H1122   1.083       .  S
C1123      C1124   1.400       .  A
C1123      C1128   1.395       .  A
C1123      H1129   1.083       .  S
C1124      C1125   1.409       .  A
C1125      C1126   1.394       .  A
C1125      H1130   1.083       .  S
C1126      C1127   1.395       .  A
C1126      H1131   1.077       .  S
C1127      C1128   1.412       .  A
C1128      H1132   1.082       .  S
C1133      C1134   1.401       .  A
C1133      C1138   1.387       .  A
C1133      H1139   1.084       .  S
C1134      C1135   1.406       .  A
C1135      C1136   1.400       .  A
C1135      H1140   1.083       .  S
C1136      C1137   1.402       .  A
C1136      H1141   1.079   1_455  S
C1137      C1138   1.406       .  A
C1138      H1142   1.083       .  S
C1143      C1144   1.405       .  A
C1143      C1148   1.391       .  A
C1143      H1149   1.084       .  S
C1144      C1145   1.399       .  A
C1145      C1146   1.394       .  A
C1145      H1150   1.083       .  S
C1146      C1147   1.403       .  A
C1146      H1151   1.081       .  S
C1147      C1148   1.399       .  A
C1148      H1152   1.080       .  S
C1153      C1154   1.241       .  T
C1155      C1156   1.257       .  T
C1157      C1158   1.252       .  T
C1159      C1160   1.254       .  T
C1161      C1443   1.523       .  S
C1161      C1445   1.542       .  S
C1161      C1447   1.544       .  S
C1161      C1450   1.533       .  S
O1162      C1164   1.290       .  A
O1162     Zr1754   2.454       .  S
O1163      C1164   1.276       .  A
O1163     Zr1200   2.377       .  S
C1164      C1414   1.467       .  S
O1165      C1167   1.328       .  A
O1165     Zr1177   2.633       .  S
O1166      C1167   1.273       .  A
O1166     Zr1201   2.379       .  S
C1167      C1448   1.506       .  S
O1168      C1170   1.318       .  A
O1168     Zr1757   2.592   1_545  S
O1169      C1170   1.282       .  A
O1169     Zr1200   2.419       .  S
C1170      C1449   1.503       .  S
O1171      C1173   1.279       .  A
O1171     Zr1174   2.413       .  S
O1172      C1173   1.288       .  A
O1172     Zr1201   2.426       .  S
C1173      C1424   1.465       .  S
Zr1174     O1742   2.451       .  S
Zr1174     O1175   2.443       .  S
Zr1174     O1176   2.437       .  S
Zr1174     O1760   2.354       .  S
Zr1174     O1181   2.392       .  S
Zr1174     O1204   2.409       .  S
Zr1174     O1786   2.363       .  S
O1175      H1798   0.989       .  S
O1176      H1797   0.990       .  S
O1176      H1221   0.990       .  S
Zr1177     O1748   2.607       .  S
Zr1177     O1178   2.439       .  S
Zr1177     O1179   2.436       .  S
Zr1177     O1181   2.373       .  S
Zr1177     O1760   2.376       .  S
Zr1177     O1785   2.415       .  S
Zr1177     O1207   2.379       .  S
O1178      H1219   0.990       .  S
O1178      H1222   0.990       .  S
O1179      H1792   0.990       .  S
O1180     Zr1754   2.357       .  S
O1180     Zr1757   2.375   1_545  S
O1180     Zr1200   2.372       .  S
O1181     Zr1201   2.391       .  S
O1181      H1208   0.964       .  S
O1182      C1184   1.324       .  A
O1182     Zr1774   2.619       .  S
O1183      C1184   1.284       .  A
O1183     Zr1201   2.433       .  S
C1184      C1399   1.523       .  S
O1185      C1187   1.279       .  A
O1185     Zr1777   2.405   1_545  S
O1186      C1187   1.287       .  A
O1186     Zr1200   2.429       .  S
C1187      C1434   1.464       .  S
O1188      C1190   1.290       .  A
O1188     Zr1197   2.459       .  S
O1189      C1190   1.275       .  A
O1189     Zr1201   2.375       .  S
C1190      C1407   1.467       .  S
O1191      C1193   1.333       .  A
O1191     Zr1194   2.659       .  S
O1192      C1193   1.275       .  A
O1192     Zr1200   2.387       .  S
C1193      C1401   1.518       .  S
Zr1194     O1762   2.619   1_545  S
Zr1194     O1195   2.421       .  S
Zr1194     O1196   2.437       .  S
Zr1194     O1782   2.399   1_545  S
Zr1194     O1206   2.383       .  S
Zr1194     O1784   2.416   1_545  S
Zr1194     O1203   2.290       .  S
O1195      H1795   0.989   1_545  S
O1195      H1220   0.990   1_545  S
O1196      H1796   0.990   1_545  S
Zr1197     O1765   2.402       .  S
Zr1197     O1198   2.441       .  S
Zr1197     O1199   2.428       .  S
Zr1197     O1202   2.333       .  S
Zr1197     O1207   2.353       .  S
Zr1197     O1785   2.390       .  S
Zr1197     O1783   2.282       .  S
O1198      H1794   0.990       .  S
O1199      H1213   0.989       .  S
O1199      H1223   0.989       .  S
Zr1200     O1205   2.391       .  S
Zr1200     O1206   2.393       .  S
Zr1200     O1203   2.265       .  S
Zr1201     O1202   2.386       .  S
Zr1201     O1204   2.391       .  S
Zr1201     O1207   2.390       .  S
O1202     Zr1774   2.386       .  S
O1202      H1210   0.962       .  S
O1203     Zr1777   2.286   1_545  S
O1204     Zr1774   2.412       .  S
O1205     Zr1757   2.408   1_545  S
O1205     Zr1777   2.385   1_545  S
O1205      H1209   0.965       .  S
O1206     Zr1754   2.358       .  S
O1206      H1211   0.964       .  S
H1212      O1759   0.990   1_545  S
H1214      O1778   0.990       .  S
H1215      O1775   0.988       .  S
H1216      O1776   0.990       .  S
H1217      O1756   0.989       .  S
H1218      O1755   0.990       .  S
N1224      C1229   1.348       .  A
N1224      C1228   1.350       .  A
N1224      H1256   1.043       .  S
N1225      C1233   1.334       .  A
N1226      C1231   1.352       .  A
N1226      C1230   1.353       .  A
N1226      H1257   1.034       .  S
N1227      C1235   1.339       .  A
C1228      C1236   1.391       .  A
C1228      C1244   1.416       .  A
C1229      C1245   1.404   1_655  A
C1229      C1237   1.379   1_655  A
C1230      C1238   1.394       .  A
C1230      C1247   1.438       .  A
C1231      C1246   1.400       .  A
C1231      C1239   1.375       .  A
C1232      C1244   1.410       .  A
C1232      C1240   1.394       .  A
C1233      C1247   1.401       .  A
C1233      C1241   1.383       .  A
C1234      C1242   1.379       .  A
C1234      C1245   1.391       .  A
C1235      C1243   1.389       .  A
C1235      C1246   1.397       .  A
C1236      C1237   1.377   1_655  A
C1236      H1248   1.083   1_655  S
C1237      H1249   1.081       .  S
C1238      C1239   1.373       .  A
C1238      H1250   1.074       .  S
C1239      H1251   1.083       .  S
C1240      H1252   1.082       .  S
C1241      H1253   1.082       .  S
C1242      H1254   1.082       .  S
C1243      H1255   1.079       .  S
C1244      C1404   1.481       .  S
C1245      C1437   1.464   1_455  S
C1246      C1417   1.479       .  S
C1247      C1427   1.471       .  S
C1258      C1395   1.550       .  S
C1258      C1397   1.506       .  S
C1258      C1400   1.555       .  S
C1258      C1402   1.555       .  S
N1259      C1844   1.344       .  A
N1259      C1263   1.349       .  A
N1259      H1291   1.043       .  S
N1260      C1267   1.352       .  A
N1260      C1268   1.345       .  A
N1261      C1846   1.342       .  A
N1261      C1265   1.346       .  A
N1261      H1292   1.040       .  S
N1262      C1269   1.336   1_554  A
N1262      C1270   1.336   1_545  A
C1263      C1271   1.373       .  A
C1263      C1279   1.391       .  A
C1264      N1839   1.344   1_554  A
C1264      C1280   1.401   1_554  A
C1264      C1272   1.384       .  A
C1265      C1273   1.385       .  A
C1265      C1282   1.418       .  A
C1266      N1841   1.346       .  A
C1266      C1281   1.409       .  A
C1266      C1274   1.385       .  A
C1267      C1279   1.413       .  A
C1267      C1275   1.386       .  A
C1268      C1282   1.397       .  A
C1268      C1276   1.375       .  A
C1269      C1277   1.377       .  A
C1269      C1280   1.390       .  A
C1270      C1278   1.397   1_564  A
C1270      C1281   1.417       .  A
C1271      C1852   1.374       .  A
C1271      H1283   1.081       .  S
C1272      C1851   1.375       .  A
C1272      H1284   1.082       .  S
C1273      C1854   1.382       .  A
C1273      H1285   1.069       .  S
C1274      C1853   1.389       .  A
C1274      H1286   1.082       .  S
C1275      C1276   1.364       .  A
C1275      H1287   1.080       .  S
C1276      H1288   1.068       .  S
C1277      C1278   1.383       .  A
C1277      H1289   1.082       .  S
C1278      H1290   1.081       .  S
C1279      C1656   1.487       .  S
C1280      C1386   1.467       .  S
C1281      C1356   1.477       .  S
C1282      C1376   1.486       .  S
O1293      C1295   1.323       .  A
O1294      C1295   1.281       .  A
O1294     Zr1331   2.409       .  S
C1295      C1446   1.506       .  S
O1296      C1298   1.291       .  A
O1297      C1298   1.283       .  A
O1297     Zr1332   2.399       .  S
C1298      C1379   1.481       .  S
O1299      C1301   1.281       .  A
O1299     Zr1308   2.410       .  S
O1300      C1301   1.290       .  A
O1300     Zr1331   2.441       .  S
C1301      C1369   1.476       .  S
O1302      C1304   1.315       .  A
O1302     Zr1305   2.580   1_655  S
O1303      C1304   1.285       .  A
O1303     Zr1622   2.428       .  S
C1304      C1444   1.493       .  S
Zr1305     O1306   2.423       .  S
Zr1305     O1307   2.436       .  S
Zr1305     O1312   2.378   1_455  S
Zr1305     O1335   2.410   1_455  S
O1307      H1352   0.990   1_455  S
Zr1308     O1309   2.439       .  S
Zr1308     O1600   2.433       .  S
Zr1308     O1311   2.394       .  S
Zr1308     O1626   2.389       .  S
O1309      H1353   0.990       .  S
O1310     Zr1598   2.436   1_554  S
O1310      H1343   0.990   1_554  S
O1311     Zr1331   2.386       .  S
O1312     Zr1622   2.391       .  S
O1312      H1339   0.962       .  S
O1313      C1315   1.276       .  A
O1314      C1315   1.296       .  A
O1314     Zr1332   2.468   1_554  S
C1315      C1359   1.471       .  S
O1316      C1318   1.308       .  A
O1316     Zr1328   2.542       .  S
O1317      C1318   1.280       .  A
O1317     Zr1621   2.404   1_554  S
C1318      C1398   1.477       .  S
O1319      C1321   1.321       .  A
O1320      C1321   1.283       .  A
O1320     Zr1332   2.424   1_554  S
C1321      C1396   1.514       .  S
O1322      C1324   1.293       .  A
O1322     Zr1615   2.464       .  S
O1323      C1324   1.281       .  A
O1323     Zr1331   2.410       .  S
C1324      C1389   1.464       .  S
Zr1325     O1612   2.473       .  S
Zr1325     O1326   2.436       .  S
Zr1325     O1617   2.432   1_554  S
Zr1325     O1627   2.329   1_554  S
Zr1325     O1334   2.242       .  S
O1326      H1351   0.990       .  S
O1327     Zr1615   2.439       .  S
Zr1328     O1329   2.423       .  S
Zr1328     O1330   2.437       .  S
Zr1328     O1336   2.392       .  S
Zr1328     O1334   2.285       .  S
O1329      H1345   0.990       .  S
O1330      H1354   0.990       .  S
Zr1331     O1607   2.419       .  S
Zr1331     O1624   2.375       .  S
Zr1331     O1626   2.403       .  S
Zr1331     O1337   2.386       .  S
Zr1332     O1593   2.408       .  S
Zr1332     O1602   2.397       .  S
Zr1332     O1333   2.375   1_556  S
Zr1332     O1625   2.390       .  S
Zr1332     O1338   2.382   1_556  S
O1333      H1341   0.965       .  S
O1334     Zr1621   2.265   1_554  S
O1335     Zr1622   2.396       .  S
O1336     Zr1598   2.386   1_554  S
O1336     Zr1621   2.408   1_554  S
O1336      H1340   0.963       .  S
O1337     Zr1615   2.354       .  S
O1337      H1342   0.962       .  S
C1355      C1646   1.395       .  A
C1355      C1360   1.391   1_565  A
C1355      H1361   1.084       .  S
C1356      C1645   1.399       .  A
C1356      C1357   1.410   1_565  A
C1357      C1358   1.392       .  A
C1357      H1362   1.080       .  S
C1358      C1359   1.397       .  A
C1358      H1363   1.083       .  S
C1359      C1650   1.410       .  A
C1360      C1649   1.410       .  A
C1360      H1364   1.081   1_655  S
C1365      C1656   1.399       .  A
C1365      C1370   1.399       .  A
C1365      H1371   1.083       .  S
C1366      C1569   1.487       .  S
C1366      C1655   1.402       .  A
C1366      C1367   1.407       .  A
C1367      C1368   1.396       .  A
C1367      H1372   1.081       .  S
C1368      C1369   1.402       .  A
C1368      H1373   1.083       .  S
C1369      C1660   1.409       .  A
C1370      C1659   1.409   1_554  A
C1370      H1374   1.082       .  S
C1375      C1666   1.410       .  A
C1375      C1380   1.403       .  A
C1375      H1381   1.079       .  S
C1376      C1665   1.409       .  A
C1376      C1377   1.396       .  A
C1377      C1378   1.391   1_554  A
C1377      H1382   1.079       .  S
C1378      C1379   1.408       .  A
C1378      H1383   1.081       .  S
C1379      C1670   1.406       .  A
C1380      C1669   1.402       .  A
C1380      H1384   1.083       .  S
C1385      C1676   1.403       .  A
C1385      C1390   1.392       .  A
C1385      H1391   1.084       .  S
C1386      C1675   1.397       .  A
C1386      C1387   1.410   1_556  A
C1387      C1388   1.401       .  A
C1387      H1392   1.083       .  S
C1388      C1679   1.400   1_554  A
C1388      H1393   1.083       .  S
C1389      C1678   1.401       .  A
C1389      C1390   1.401       .  A
C1390      H1394   1.084       .  S
C1395      C1396   1.255       .  T
C1397      C1398   1.233       .  T
C1399      C1400   1.260       .  T
C1401      C1402   1.260       .  T
C1403      C1404   1.400       .  A
C1403      C1408   1.396       .  A
C1403      H1409   1.082       .  S
C1404      C1405   1.409       .  A
C1405      C1406   1.387       .  A
C1405      H1410   1.083       .  S
C1406      C1407   1.398       .  A
C1406      H1411   1.084       .  S
C1407      C1408   1.409       .  A
C1408      H1412   1.083       .  S
C1413      C1414   1.398       .  A
C1413      C1418   1.391       .  A
C1413      H1419   1.083       .  S
C1414      C1415   1.408       .  A
C1415      C1416   1.392       .  A
C1415      H1420   1.083       .  S
C1416      C1417   1.395       .  A
C1416      H1421   1.077       .  S
C1417      C1418   1.412       .  A
C1418      H1422   1.081       .  S
C1423      C1424   1.400       .  A
C1423      C1428   1.387       .  A
C1423      H1429   1.084       .  S
C1424      C1425   1.407       .  A
C1425      C1426   1.398       .  A
C1425      H1430   1.083       .  S
C1426      C1427   1.401       .  A
C1426      H1431   1.080       .  S
C1427      C1428   1.404       .  A
C1428      H1432   1.083       .  S
C1433      C1434   1.403       .  A
C1433      C1438   1.392       .  A
C1433      H1439   1.084       .  S
C1434      C1435   1.402       .  A
C1435      C1436   1.396       .  A
C1435      H1440   1.083       .  S
C1436      C1437   1.404       .  A
C1436      H1441   1.083       .  S
C1437      C1438   1.401       .  A
C1438      H1442   1.084   1_655  S
C1443      C1444   1.242       .  T
C1445      C1446   1.251       .  T
C1447      C1448   1.253       .  T
C1449      C1450   1.248       .  T
C1451      C1733   1.517       .  S
C1451      C1735   1.550       .  S
C1451      C1737   1.536       .  S
C1451      C1740   1.537       .  S
O1452      C1454   1.293       .  A
O1452     Zr2044   2.465       .  S
O1453      C1454   1.279       .  A
O1453     Zr1490   2.387       .  S
C1454      C1704   1.471       .  S
O1455      C1457   1.325       .  A
O1455     Zr1467   2.622       .  S
O1456      C1457   1.274       .  A
O1456     Zr1491   2.380       .  S
C1457      C1738   1.500       .  S
O1458      C1460   1.320       .  A
O1458     Zr2047   2.600   1_545  S
O1459      C1460   1.283       .  A
O1459     Zr1490   2.422       .  S
C1460      C1739   1.507       .  S
O1461      C1463   1.278       .  A
O1461     Zr1464   2.402       .  S
O1462      C1463   1.291       .  A
O1462     Zr1491   2.437       .  S
C1463      C1714   1.465       .  S
Zr1464     O2032   2.461       .  S
Zr1464     O1465   2.433       .  S
Zr1464     O1466   2.430       .  S
Zr1464     O2050   2.345       .  S
Zr1464     O1471   2.391       .  S
Zr1464     O1494   2.404       .  S
Zr1464     O2076   2.352       .  S
O1465      H2088   0.990       .  S
O1466      H2087   0.990       .  S
O1466      H1511   0.990       .  S
Zr1467     O2038   2.603       .  S
Zr1467     O1468   2.437       .  S
Zr1467     O1469   2.436       .  S
Zr1467     O1471   2.369       .  S
Zr1467     O2050   2.365       .  S
Zr1467     O2075   2.409       .  S
Zr1467     O1497   2.378       .  S
O1468      H1509   0.990       .  S
O1468      H1512   0.990       .  S
O1469      H2082   0.990       .  S
O1470     Zr2044   2.354       .  S
O1470     Zr2047   2.376   1_545  S
O1470     Zr1490   2.375       .  S
O1471     Zr1491   2.389       .  S
O1471      H1498   0.964       .  S
O1472      C1474   1.325       .  A
O1472     Zr2064   2.623       .  S
O1473      C1474   1.285       .  A
O1473     Zr1491   2.434       .  S
C1474      C1689   1.516       .  S
O1475      C1477   1.281       .  A
O1475     Zr2067   2.414   1_545  S
O1476      C1477   1.290       .  A
O1476     Zr1490   2.439       .  S
C1477      C1724   1.467       .  S
O1478      C1480   1.291       .  A
O1478     Zr1487   2.460       .  S
O1479      C1480   1.278       .  A
O1479     Zr1491   2.391       .  S
C1480      C1697   1.473       .  S
O1481      C1483   1.330       .  A
O1481     Zr1484   2.647       .  S
O1482      C1483   1.281       .  A
O1482     Zr1490   2.417       .  S
C1483      C1691   1.523       .  S
Zr1484     O2052   2.610   1_545  S
Zr1484     O1485   2.426       .  S
Zr1484     O1486   2.432       .  S
Zr1484     O2072   2.393   1_545  S
Zr1484     O1493   2.380       .  S
Zr1484     O1496   2.379       .  S
Zr1484     O2074   2.419   1_545  S
O1485      H2085   0.985       .  S
O1485      H1510   0.989       .  S
O1486      H2086   0.990       .  S
Zr1487     O2055   2.402       .  S
Zr1487     O1488   2.435       .  S
Zr1487     O1489   2.431       .  S
Zr1487     O2073   2.389       .  S
Zr1487     O1492   2.331       .  S
Zr1487     O1497   2.359       .  S
Zr1487     O2075   2.392       .  S
O1488      H2084   0.990       .  S
O1489      H1503   0.990       .  S
O1489      H1513   0.990       .  S
Zr1490     O1493   2.370       .  S
Zr1490     O1495   2.406       .  S
Zr1490     O1496   2.384       .  S
Zr1491     O1492   2.382       .  S
Zr1491     O1494   2.391       .  S
Zr1491     O1497   2.386       .  S
O1492     Zr2064   2.397       .  S
O1492      H1500   0.961       .  S
O1493     Zr2067   2.385   1_545  S
O1494     Zr2064   2.415       .  S
O1495     Zr2047   2.411   1_545  S
O1495     Zr2067   2.391   1_545  S
O1495      H1499   0.966       .  S
O1496     Zr2044   2.354       .  S
O1496      H1501   0.964       .  S
H1502      O2049   0.990   1_545  S
H1504      O2068   0.990       .  S
H1505      O2065   0.988       .  S
H1506      O2066   0.990       .  S
H1507      O2046   0.989       .  S
H1508      O2045   0.990       .  S
N1514      C1519   1.351   1_655  A
N1514      C1518   1.350       .  A
N1514      H1546   1.041       .  S
N1515      C1523   1.340       .  A
N1516      C1521   1.350       .  A
N1516      C1520   1.351       .  A
N1516      H1547   1.036       .  S
N1517      C1525   1.340       .  A
C1518      C1526   1.391       .  A
C1518      C1534   1.421       .  A
C1519      C1535   1.408       .  A
C1519      C1527   1.382       .  A
C1520      C1528   1.395       .  A
C1520      C1537   1.435       .  A
C1521      C1536   1.394       .  A
C1521      C1529   1.373       .  A
C1522      C1534   1.409       .  A
C1522      C1530   1.393       .  A
C1523      C1537   1.402       .  A
C1523      C1531   1.379       .  A
C1524      C1532   1.381       .  A
C1524      C1535   1.395       .  A
C1525      C1533   1.383       .  A
C1525      C1536   1.393       .  A
C1526      C1527   1.376   1_655  A
C1526      H1538   1.081   1_655  S
C1527      H1539   1.082       .  S
C1528      C1529   1.372       .  A
C1528      H1540   1.073       .  S
C1529      H1541   1.083       .  S
C1530      H1542   1.082       .  S
C1531      H1543   1.082       .  S
C1532      H1544   1.082       .  S
C1533      H1545   1.076       .  S
C1534      C1694   1.484       .  S
C1535      C1727   1.470   1_455  S
C1536      C1707   1.483       .  S
C1537      C1717   1.477       .  S
C1548      C1685   1.552       .  S
C1548      C1687   1.521       .  S
C1548      C1690   1.548       .  S
C1548      C1692   1.560       .  S
N1549      C2134   1.345       .  A
N1549      C1553   1.349       .  A
N1549      H1581   1.044       .  S
N1550      C1557   1.351       .  A
N1550      C1558   1.347       .  A
N1551      C2136   1.346       .  A
N1551      C1555   1.340       .  A
N1551      H1582   1.040       .  S
N1552      C1559   1.346   1_565  A
N1552      C1560   1.347       .  A
C1553      C1561   1.387       .  A
C1553      C1569   1.400       .  A
C1554      N2129   1.345       .  A
C1554      C1570   1.416       .  A
C1554      C1562   1.395       .  A
C1555      C1563   1.380       .  A
C1555      C1572   1.403       .  A
C1556      N2131   1.342       .  A
C1556      C1571   1.400       .  A
C1556      C1564   1.384       .  A
C1557      C1569   1.415       .  A
C1557      C1565   1.391       .  A
C1558      C1572   1.399       .  A
C1558      C1566   1.378       .  A
C1559      C1567   1.382       .  A
C1559      C1570   1.407       .  A
C1560      C1568   1.392   1_565  A
C1560      C1571   1.414       .  A
C1561      C2142   1.375       .  A
C1561      H1573   1.082       .  S
C1562      C2141   1.373       .  A
C1562      H1574   1.077       .  S
C1563      C2144   1.387       .  A
C1563      H1575   1.072       .  S
C1564      C2143   1.382       .  A
C1564      H1576   1.082       .  S
C1565      C1566   1.373       .  A
C1565      H1577   1.081       .  S
C1566      H1578   1.075       .  S
C1567      C1568   1.383       .  A
C1567      H1579   1.082       .  S
C1568      H1580   1.082       .  S
C1570      C1676   1.477       .  S
C1571      C1646   1.472       .  S
C1572      C1666   1.486       .  S
O1583      C1585   1.318       .  A
O1584      C1585   1.291       .  A
O1584     Zr1621   2.465       .  S
C1585      C1736   1.516       .  S
O1586      C1588   1.295       .  A
O1587      C1588   1.281       .  A
O1587     Zr1622   2.388       .  S
C1588      C1669   1.474       .  S
O1589      C1591   1.284       .  A
O1589     Zr1598   2.429       .  S
O1590      C1591   1.289       .  A
O1590     Zr1621   2.433       .  S
C1591      C1659   1.471       .  S
O1592      C1594   1.317       .  A
O1592     Zr1595   2.588   1_655  S
O1593      C1594   1.281       .  A
C1594      C1734   1.488       .  S
Zr1595     O1596   2.417       .  S
Zr1595     O1597   2.436       .  S
Zr1595     O1602   2.385   1_455  S
Zr1595     O1625   2.409   1_455  S
O1597      H1642   0.990       .  S
Zr1598     O1599   2.437       .  S
Zr1598     O1601   2.401       .  S
O1599      H1643   0.990       .  S
O1600      H1633   0.990       .  S
O1601     Zr1621   2.379       .  S
O1602      H1629   0.964       .  S
O1603      C1605   1.275       .  A
O1604      C1605   1.296       .  A
O1604     Zr1622   2.468       .  S
C1605      C1649   1.465       .  S
O1606      C1608   1.316       .  A
O1606     Zr1618   2.575       .  S
O1607      C1608   1.282       .  A
C1608      C1688   1.489       .  S
O1609      C1611   1.321       .  A
O1610      C1611   1.283       .  A
O1610     Zr1622   2.426       .  S
C1611      C1686   1.518       .  S
O1612      C1614   1.294       .  A
O1613      C1614   1.277   1_556  A
O1613     Zr1621   2.384       .  S
C1614      C1679   1.455   1_554  S
Zr1615     O1616   2.428       .  S
Zr1615     O1624   2.340       .  S
O1616      H1641   0.989       .  S
Zr1618     O1619   2.431       .  S
Zr1618     O1620   2.437       .  S
Zr1618     O1624   2.378       .  S
Zr1618     O1626   2.410       .  S
O1619      H1635   0.990       .  S
O1620      H1644   0.990       .  S
Zr1621     O1627   2.376       .  S
Zr1622     O1623   2.391       .  S
Zr1622     O1628   2.392       .  S
O1623      H1631   0.966       .  S
O1626      H1630   0.966       .  S
O1627      H1632   0.960       .  S
C1645      C1650   1.398   1_565  A
C1645      H1651   1.081       .  S
C1646      C1647   1.410   1_565  A
C1647      C1648   1.393       .  A
C1647      H1652   1.080       .  S
C1648      C1649   1.397       .  A
C1648      H1653   1.083       .  S
C1650      H1654   1.081       .  S
C1655      C1660   1.396       .  A
C1655      H1661   1.080       .  S
C1656      C1657   1.411       .  A
C1657      C1658   1.395   1_554  A
C1657      H1662   1.081       .  S
C1658      C1659   1.399       .  A
C1658      H1663   1.083       .  S
C1660      H1664   1.083       .  S
C1665      C1670   1.400   1_554  A
C1665      H1671   1.082       .  S
C1666      C1667   1.392       .  A
C1667      C1668   1.388       .  A
C1667      H1672   1.070       .  S
C1668      C1669   1.405       .  A
C1668      H1673   1.081       .  S
C1670      H1674   1.083       .  S
C1675      C1680   1.392       .  A
C1675      H1681   1.084       .  S
C1676      C1677   1.407       .  A
C1677      C1678   1.403       .  A
C1677      H1682   1.083       .  S
C1678      H1683   1.082       .  S
C1679      C1680   1.401       .  A
C1680      H1684   1.079       .  S
C1685      C1686   1.256       .  T
C1687      C1688   1.241       .  T
C1689      C1690   1.257       .  T
C1691      C1692   1.261       .  T
C1693      C1694   1.401       .  A
C1693      C1698   1.398       .  A
C1693      H1699   1.082       .  S
C1694      C1695   1.410       .  A
C1695      C1696   1.390       .  A
C1695      H1700   1.084       .  S
C1696      C1697   1.399       .  A
C1696      H1701   1.083       .  S
C1697      C1698   1.409       .  A
C1698      H1702   1.083       .  S
C1703      C1704   1.399       .  A
C1703      C1708   1.395       .  A
C1703      H1709   1.083       .  S
C1704      C1705   1.407       .  A
C1705      C1706   1.393       .  A
C1705      H1710   1.083       .  S
C1706      C1707   1.395       .  A
C1706      H1711   1.077       .  S
C1707      C1708   1.412       .  A
C1708      H1712   1.081       .  S
C1713      C1714   1.399       .  A
C1713      C1718   1.388       .  A
C1713      H1719   1.084       .  S
C1714      C1715   1.407       .  A
C1715      C1716   1.398       .  A
C1715      H1720   1.083       .  S
C1716      C1717   1.402       .  A
C1716      H1721   1.076       .  S
C1717      C1718   1.405       .  A
C1718      H1722   1.084       .  S
C1723      C1724   1.403       .  A
C1723      C1728   1.393   1_655  A
C1723      H1729   1.083       .  S
C1724      C1725   1.403       .  A
C1725      C1726   1.398       .  A
C1725      H1730   1.083       .  S
C1726      C1727   1.406       .  A
C1726      H1731   1.082       .  S
C1727      C1728   1.401   1_655  A
C1728      H1732   1.082       .  S
C1733      C1734   1.240       .  T
C1735      C1736   1.256       .  T
C1737      C1738   1.248       .  T
C1739      C1740   1.250       .  T
C1741      C2023   1.516       .  S
C1741      C2025   1.543       .  S
C1741      C2027   1.534       .  S
C1741      C2030   1.536       .  S
O1742      C1744   1.290       .  A
O1743      C1744   1.277       .  A
O1743     Zr1780   2.385       .  S
C1744      C1994   1.471       .  S
O1745      C1747   1.323       .  A
O1745     Zr1757   2.613       .  S
O1746      C1747   1.277       .  A
O1746     Zr1781   2.389       .  S
C1747      C2028   1.500       .  S
O1748      C1750   1.320       .  A
O1749      C1750   1.281       .  A
O1749     Zr1780   2.413       .  S
C1750      C2029   1.506       .  S
O1751      C1753   1.281       .  A
O1751     Zr1754   2.413   1_565  S
O1752      C1753   1.291       .  A
O1752     Zr1781   2.444       .  S
C1753      C2004   1.467       .  S
Zr1754     O1755   2.435       .  S
Zr1754     O1756   2.435       .  S
Zr1754     O1761   2.390   1_545  S
Zr1754     O1784   2.406   1_545  S
O1756      H1801   0.990       .  S
Zr1757     O1758   2.436       .  S
Zr1757     O1759   2.435       .  S
Zr1757     O1761   2.373       .  S
Zr1757     O1787   2.374       .  S
O1758      H1799   0.990       .  S
O1758      H1802   0.990       .  S
O1760     Zr1780   2.376       .  S
O1761     Zr1781   2.388       .  S
O1761      H1788   0.962       .  S
O1762      C1764   1.324       .  A
O1763      C1764   1.283       .  A
O1763     Zr1781   2.423       .  S
C1764      C1979   1.508       .  S
O1765      C1767   1.278       .  A
O1766      C1767   1.289       .  A
O1766     Zr1780   2.435       .  S
C1767      C2014   1.466       .  S
O1768      C1770   1.291       .  A
O1768     Zr1777   2.458       .  S
O1769      C1770   1.280       .  A
O1769     Zr1781   2.400       .  S
C1770      C1987   1.476       .  S
O1771      C1773   1.326       .  A
O1771     Zr1774   2.632       .  S
O1772      C1773   1.277       .  A
O1772     Zr1780   2.395       .  S
C1773      C1981   1.506       .  S
Zr1774     O1775   2.432       .  S
Zr1774     O1776   2.434       .  S
Zr1774     O1786   2.389       .  S
Zr1774     O1783   2.288       .  S
O1775      H1800   0.988       .  S
Zr1777     O1778   2.436       .  S
Zr1777     O1779   2.427       .  S
Zr1777     O1782   2.330       .  S
Zr1777     O1787   2.352       .  S
O1779      H1793   0.990       .  S
O1779      H1803   0.990       .  S
Zr1780     O1785   2.398       .  S
Zr1780     O1786   2.390       .  S
Zr1780     O1783   2.257       .  S
Zr1781     O1782   2.393       .  S
Zr1781     O1784   2.396       .  S
Zr1781     O1787   2.386       .  S
O1782      H1790   0.961       .  S
O1785      H1789   0.966       .  S
O1786      H1791   0.958       .  S
N1804      C1809   1.352       .  A
N1804      C1808   1.349       .  A
N1804      H1836   1.040       .  S
N1805      C1813   1.344       .  A
N1806      C1811   1.349       .  A
N1806      C1810   1.348       .  A
N1806      H1837   1.042       .  S
N1807      C1815   1.343       .  A
C1808      C1816   1.392       .  A
C1808      C1824   1.420       .  A
C1809      C1825   1.410   1_655  A
C1809      C1817   1.383   1_655  A
C1810      C1818   1.382       .  A
C1810      C1827   1.406       .  A
C1811      C1826   1.413       .  A
C1811      C1819   1.389       .  A
C1812      C1824   1.404       .  A
C1812      C1820   1.392       .  A
C1813      C1827   1.398       .  A
C1813      C1821   1.381       .  A
C1814      C1822   1.380       .  A
C1814      C1825   1.392       .  A
C1815      C1823   1.390       .  A
C1815      C1826   1.404       .  A
C1816      C1817   1.376   1_655  A
C1816      H1828   1.081   1_655  S
C1817      H1829   1.083       .  S
C1818      C1819   1.378       .  A
C1818      H1830   1.081       .  S
C1819      H1831   1.082       .  S
C1820      H1832   1.081       .  S
C1821      H1833   1.082       .  S
C1822      H1834   1.082       .  S
C1823      H1835   1.081       .  S
C1824      C1984   1.487       .  S
C1825      C2017   1.468   1_455  S
C1826      C1997   1.481       .  S
C1827      C2007   1.475       .  S
C1838      C1975   1.557       .  S
C1838      C1977   1.507       .  S
C1838      C1980   1.540       .  S
C1838      C1982   1.542       .  S
N1839      C1843   1.348   1_556  A
N1839      H1871   1.044       .  S
N1840      C1847   1.349       .  A
N1840      C1848   1.347       .  A
N1841      C1845   1.339       .  A
N1841      H1872   1.037       .  S
N1842      C1849   1.345       .  A
N1842      C1850   1.348       .  A
C1843      C1851   1.388       .  A
C1843      C1859   1.401       .  A
C1844      C1860   1.419       .  A
C1844      C1852   1.397       .  A
C1845      C1853   1.384       .  A
C1845      C1862   1.401       .  A
C1846      C1861   1.400       .  A
C1846      C1854   1.383       .  A
C1847      C1859   1.417   1_565  A
C1847      C1855   1.391       .  A
C1848      C1862   1.404       .  A
C1848      C1856   1.377       .  A
C1849      C1857   1.383   1_554  A
C1849      C1860   1.409       .  A
C1850      C1858   1.391       .  A
C1850      C1861   1.412       .  A
C1851      H1863   1.083       .  S
C1852      H1864   1.075       .  S
C1853      H1865   1.078       .  S
C1854      H1866   1.082       .  S
C1855      C1856   1.374       .  A
C1855      H1867   1.080       .  S
C1856      H1868   1.074       .  S
C1857      C1858   1.382   1_556  A
C1857      H1869   1.082       .  S
C1858      H1870   1.082   1_554  S
C1859      C2236   1.484   1_554  S
C1860      C1966   1.476       .  S
C1861      C1936   1.475       .  S
C1862      C1956   1.490       .  S
O1873      C1875   1.315       .  A
O1874      C1875   1.291       .  A
O1874     Zr1911   2.460       .  S
C1875      C2026   1.511       .  S
O1876      C1878   1.294       .  A
O1877      C1878   1.281       .  A
O1877     Zr1912   2.388       .  S
C1878      C1959   1.473       .  S
O1879      C1881   1.287       .  A
O1879     Zr1888   2.445       .  S
O1880      C1881   1.287       .  A
O1880     Zr1911   2.427       .  S
C1881      C1949   1.473       .  S
O1882      C1884   1.317       .  A
O1882     Zr1885   2.582   1_655  S
O1883      C1884   1.282       .  A
O1883     Zr2202   2.414       .  S
C1884      C2024   1.485       .  S
Zr1885     O1886   2.422       .  S
Zr1885     O1887   2.434       .  S
Zr1885     O1892   2.386   1_455  S
Zr1885     O1915   2.411   1_455  S
O1887      H1932   0.990   1_455  S
Zr1888     O1889   2.437       .  S
Zr1888     O2180   2.432       .  S
Zr1888     O1891   2.397       .  S
Zr1888     O2206   2.390       .  S
O1889      H1933   0.990       .  S
O1890     Zr2178   2.429       .  S
O1890      H1923   0.989       .  S
O1891     Zr1911   2.384       .  S
O1892     Zr2202   2.388       .  S
O1892      H1919   0.962       .  S
O1893      C1895   1.274       .  A
O1894      C1895   1.297       .  A
O1894     Zr1912   2.477   1_554  S
C1895      C1939   1.467       .  S
O1896      C1898   1.312       .  A
O1896     Zr1908   2.559       .  S
O1897      C1898   1.282       .  A
O1897     Zr2201   2.419   1_554  S
C1898      C1978   1.476       .  S
O1899      C1901   1.321       .  A
O1900      C1901   1.286       .  A
O1900     Zr1912   2.441   1_554  S
C1901      C1976   1.522       .  S
O1902      C1904   1.293       .  A
O1902     Zr2195   2.469       .  S
O1903      C1904   1.275       .  A
O1903     Zr1911   2.374       .  S
C1904      C1969   1.448       .  S
Zr1905     O2192   2.467       .  S
Zr1905     O1906   2.435       .  S
Zr1905     O2197   2.434   1_554  S
Zr1905     O1914   2.334       .  S
Zr1905     O2207   2.348   1_554  S
O1906      H1931   0.990       .  S
O1907     Zr2195   2.425       .  S
Zr1908     O1909   2.430       .  S
Zr1908     O1910   2.435       .  S
Zr1908     O1914   2.379       .  S
Zr1908     O1916   2.414       .  S
O1909      H1925   0.990       .  S
O1910      H1934   0.990       .  S
Zr1911     O2187   2.420       .  S
Zr1911     O2204   2.364       .  S
Zr1911     O2206   2.407       .  S
Zr1911     O1917   2.379       .  S
Zr1912     O2173   2.416       .  S
Zr1912     O2182   2.405       .  S
Zr1912     O1913   2.381   1_556  S
Zr1912     O2205   2.393       .  S
Zr1912     O1918   2.388   1_556  S
O1913      H1921   0.965       .  S
O1914     Zr2201   2.372   1_554  S
O1915     Zr2202   2.396       .  S
O1916     Zr2178   2.385   1_554  S
O1916     Zr2201   2.407   1_554  S
O1916      H1920   0.965       .  S
O1917     Zr2195   2.340       .  S
O1917      H1922   0.962       .  S
C1935      C2226   1.399       .  A
C1935      C1940   1.400       .  A
C1935      H1941   1.081       .  S
C1936      C2225   1.396       .  A
C1936      C1937   1.413       .  A
C1937      C1938   1.395       .  A
C1937      H1942   1.082       .  S
C1938      C1939   1.398       .  A
C1938      H1943   1.083       .  S
C1939      C2230   1.410       .  A
C1940      C2229   1.409       .  A
C1940      H1944   1.081       .  S
C1945      C2236   1.401       .  A
C1945      C1950   1.397   1_545  A
C1945      H1951   1.081       .  S
C1946      C2149   1.484       .  S
C1946      C2235   1.400       .  A
C1946      C1947   1.409       .  A
C1947      C1948   1.395       .  A
C1947      H1952   1.082       .  S
C1948      C1949   1.400       .  A
C1948      H1953   1.083       .  S
C1949      C2240   1.407       .  A
C1950      C2239   1.408       .  A
C1950      H1954   1.083       .  S
C1955      C2246   1.408       .  A
C1955      C1960   1.398       .  A
C1955      H1961   1.081       .  S
C1956      C2245   1.413   1_554  A
C1956      C1957   1.390       .  A
C1957      C1958   1.389       .  A
C1957      H1962   1.062       .  S
C1958      C1959   1.404   1_554  A
C1958      H1963   1.081       .  S
C1959      C2250   1.400       .  A
C1960      C2249   1.405       .  A
C1960      H1964   1.083       .  S
C1965      C2256   1.395       .  A
C1965      C1970   1.388       .  A
C1965      H1971   1.084       .  S
C1966      C2255   1.401   1_554  A
C1966      C1967   1.407       .  A
C1967      C1968   1.402       .  A
C1967      H1972   1.084       .  S
C1968      C2259   1.401   1_554  A
C1968      H1973   1.083       .  S
C1969      C2258   1.398       .  A
C1969      C1970   1.399       .  A
C1970      H1974   1.077       .  S
C1975      C1976   1.259       .  T
C1977      C1978   1.234       .  T
C1979      C1980   1.252       .  T
C1981      C1982   1.252       .  T
C1983      C1984   1.402       .  A
C1983      C1988   1.400       .  A
C1983      H1989   1.081       .  S
C1984      C1985   1.410       .  A
C1985      C1986   1.392       .  A
C1985      H1990   1.084       .  S
C1986      C1987   1.401       .  A
C1986      H1991   1.083       .  S
C1987      C1988   1.408       .  A
C1988      H1992   1.083       .  S
C1993      C1994   1.398       .  A
C1993      C1998   1.389       .  A
C1993      H1999   1.084       .  S
C1994      C1995   1.410       .  A
C1995      C1996   1.396       .  A
C1995      H2000   1.083       .  S
C1996      C1997   1.399       .  A
C1996      H2001   1.082       .  S
C1997      C1998   1.409       .  A
C1998      H2002   1.082       .  S
C2003      C2004   1.404       .  A
C2003      C2008   1.397       .  A
C2003      H2009   1.083       .  S
C2004      C2005   1.404       .  A
C2005      C2006   1.397       .  A
C2005      H2010   1.083       .  S
C2006      C2007   1.402       .  A
C2006      H2011   1.077       .  S
C2007      C2008   1.404       .  A
C2008      H2012   1.080       .  S
C2013      C2014   1.405       .  A
C2013      C2018   1.393       .  A
C2013      H2019   1.083       .  S
C2014      C2015   1.401       .  A
C2015      C2016   1.396       .  A
C2015      H2020   1.084       .  S
C2016      C2017   1.406       .  A
C2016      H2021   1.081       .  S
C2017      C2018   1.399       .  A
C2018      H2022   1.084   1_655  S
C2023      C2024   1.239       .  T
C2025      C2026   1.253       .  T
C2027      C2028   1.248       .  T
C2029      C2030   1.250       .  T
C2031      C2313   1.512       .  S
C2031      C2315   1.540       .  S
C2031      C2317   1.546       .  S
C2031      C2320   1.541       .  S
O2032      C2034   1.292       .  A
O2033      C2034   1.276       .  A
O2033     Zr2070   2.373       .  S
C2034      C2284   1.468       .  S
O2035      C2037   1.328       .  A
O2035     Zr2047   2.637       .  S
O2036      C2037   1.275       .  A
O2036     Zr2071   2.386       .  S
C2037      C2318   1.509       .  S
O2038      C2040   1.320       .  A
O2039      C2040   1.285       .  A
O2039     Zr2070   2.433       .  S
C2040      C2319   1.512       .  S
O2041      C2043   1.281       .  A
O2041     Zr2044   2.416   1_565  S
O2042      C2043   1.292       .  A
O2042     Zr2071   2.446       .  S
C2043      C2294   1.471       .  S
Zr2044     O2045   2.435       .  S
Zr2044     O2046   2.435       .  S
Zr2044     O2051   2.394   1_545  S
Zr2044     O2074   2.402   1_545  S
O2046      H2091   0.990       .  S
Zr2047     O2048   2.440       .  S
Zr2047     O2049   2.436       .  S
Zr2047     O2051   2.368       .  S
Zr2047     O2077   2.370       .  S
O2048      H2089   0.990       .  S
O2048      H2092   0.990       .  S
O2050     Zr2070   2.367       .  S
O2051     Zr2071   2.386       .  S
O2051      H2078   0.966       .  S
O2052      C2054   1.323       .  A
O2053      C2054   1.286       .  A
O2053     Zr2071   2.435       .  S
C2054      C2269   1.515       .  S
O2055      C2057   1.278       .  A
O2056      C2057   1.287       .  A
O2056     Zr2070   2.420       .  S
C2057      C2304   1.455       .  S
O2058      C2060   1.293       .  A
O2058     Zr2067   2.465       .  S
O2059      C2060   1.278       .  A
O2059     Zr2071   2.390       .  S
C2060      C2277   1.470       .  S
O2061      C2063   1.330       .  A
O2061     Zr2064   2.646       .  S
O2062      C2063   1.279       .  A
O2062     Zr2070   2.405       .  S
C2063      C2271   1.517       .  S
Zr2064     O2065   2.425       .  S
Zr2064     O2066   2.435       .  S
Zr2064     O2073   2.388       .  S
Zr2064     O2076   2.386       .  S
O2065      H2090   0.990       .  S
Zr2067     O2068   2.437       .  S
Zr2067     O2069   2.430       .  S
Zr2067     O2072   2.338       .  S
Zr2067     O2077   2.359       .  S
O2069      H2083   0.990       .  S
O2069      H2093   0.990       .  S
Zr2070     O2073   2.378       .  S
Zr2070     O2075   2.399       .  S
Zr2070     O2076   2.386       .  S
Zr2071     O2072   2.382       .  S
Zr2071     O2074   2.389       .  S
Zr2071     O2077   2.386       .  S
O2072      H2080   0.957       .  S
O2075      H2079   0.965       .  S
O2076      H2081   0.964       .  S
N2094      C2099   1.353       .  A
N2094      C2098   1.353       .  A
N2094      H2126   1.043       .  S
N2095      C2103   1.335       .  A
N2096      C2101   1.349       .  A
N2096      C2100   1.352       .  A
N2096      H2127   1.035       .  S
N2097      C2105   1.338       .  A
C2098      C2106   1.391       .  A
C2098      C2114   1.419       .  A
C2099      C2115   1.410   1_655  A
C2099      C2107   1.382   1_655  A
C2100      C2108   1.394       .  A
C2100      C2117   1.433       .  A
C2101      C2116   1.397       .  A
C2101      C2109   1.372       .  A
C2102      C2114   1.407       .  A
C2102      C2110   1.392       .  A
C2103      C2117   1.403       .  A
C2103      C2111   1.382       .  A
C2104      C2112   1.379       .  A
C2104      C2115   1.389       .  A
C2105      C2113   1.389       .  A
C2105      C2116   1.398       .  A
C2106      C2107   1.374   1_655  A
C2106      H2118   1.083   1_655  S
C2107      H2119   1.081       .  S
C2108      C2109   1.376       .  A
C2108      H2120   1.076       .  S
C2109      H2121   1.082       .  S
C2110      H2122   1.082       .  S
C2111      H2123   1.082       .  S
C2112      H2124   1.082       .  S
C2113      H2125   1.081       .  S
C2114      C2274   1.483       .  S
C2115      C2307   1.459   1_455  S
C2116      C2287   1.483       .  S
C2117      C2297   1.479       .  S
C2128      C2265   1.551       .  S
C2128      C2267   1.513       .  S
C2128      C2270   1.546       .  S
C2128      C2272   1.554       .  S
N2129      C2133   1.349       .  A
N2129      H2161   1.043   1_545  S
N2130      C2137   1.351       .  A
N2130      C2138   1.344       .  A
N2131      C2135   1.346       .  A
N2131      H2162   1.040       .  S
N2132      C2139   1.339       .  A
N2132      C2140   1.343       .  A
C2133      C2141   1.372       .  A
C2133      C2149   1.389   1_545  A
C2134      C2150   1.402       .  A
C2134      C2142   1.384       .  A
C2135      C2143   1.386       .  A
C2135      C2152   1.413       .  A
C2136      C2151   1.406       .  A
C2136      C2144   1.385       .  A
C2137      C2149   1.411       .  A
C2137      C2145   1.384       .  A
C2138      C2152   1.394       .  A
C2138      C2146   1.373       .  A
C2139      C2147   1.379       .  A
C2139      C2150   1.389       .  A
C2140      C2148   1.392       .  A
C2140      C2151   1.410       .  A
C2141      H2153   1.080       .  S
C2142      H2154   1.082       .  S
C2143      H2155   1.074       .  S
C2144      H2156   1.081       .  S
C2145      C2146   1.363       .  A
C2145      H2157   1.081       .  S
C2146      H2158   1.066       .  S
C2147      C2148   1.379       .  A
C2147      H2159   1.082       .  S
C2148      H2160   1.081       .  S
C2150      C2256   1.466       .  S
C2151      C2226   1.482       .  S
C2152      C2246   1.483       .  S
O2163      C2165   1.320       .  A
O2164      C2165   1.283       .  A
O2164     Zr2201   2.421       .  S
C2165      C2316   1.505       .  S
O2166      C2168   1.290       .  A
O2167      C2168   1.284       .  A
O2167     Zr2202   2.402       .  S
C2168      C2249   1.479       .  S
O2169      C2171   1.282       .  A
O2169     Zr2178   2.420       .  S
O2170      C2171   1.288       .  A
O2170     Zr2201   2.428       .  S
C2171      C2239   1.475       .  S
O2172      C2174   1.313       .  A
O2172     Zr2175   2.567   1_655  S
O2173      C2174   1.283       .  A
C2174      C2314   1.482       .  S
Zr2175     O2176   2.416       .  S
Zr2175     O2177   2.438       .  S
Zr2175     O2182   2.390   1_455  S
Zr2175     O2205   2.408   1_455  S
O2177      H2222   0.990       .  S
Zr2178     O2179   2.441       .  S
Zr2178     O2181   2.391       .  S
O2179      H2223   0.990       .  S
O2180      H2213   0.990       .  S
O2181     Zr2201   2.385       .  S
O2182      H2209   0.964       .  S
O2183      C2185   1.281       .  A
O2184      C2185   1.294       .  A
O2184     Zr2202   2.458       .  S
C2185      C2229   1.478       .  S
O2186      C2188   1.312       .  A
O2186     Zr2198   2.563       .  S
O2187      C2188   1.284       .  A
C2188      C2268   1.483       .  S
O2189      C2191   1.322       .  A
O2190      C2191   1.283       .  A
O2190     Zr2202   2.426       .  S
C2191      C2266   1.516       .  S
O2192      C2194   1.294       .  A
O2193      C2194   1.279   1_556  A
O2193     Zr2201   2.397       .  S
C2194      C2259   1.461   1_554  S
Zr2195     O2196   2.438       .  S
Zr2195     O2204   2.312       .  S
O2196      H2221   0.990       .  S
Zr2198     O2199   2.431       .  S
Zr2198     O2200   2.438       .  S
Zr2198     O2204   2.362       .  S
Zr2198     O2206   2.395       .  S
O2199      H2215   0.990       .  S
O2200      H2224   0.990       .  S
Zr2201     O2207   2.382       .  S
Zr2202     O2203   2.381       .  S
Zr2202     O2208   2.381       .  S
O2203      H2211   0.966       .  S
O2206      H2210   0.964       .  S
O2207      H2212   0.964       .  S
C2225      C2230   1.391       .  A
C2225      H2231   1.083       .  S
C2226      C2227   1.410       .  A
C2227      C2228   1.396       .  A
C2227      H2232   1.081       .  S
C2228      C2229   1.400       .  A
C2228      H2233   1.082       .  S
C2230      H2234   1.080   1_655  S
C2235      C2240   1.400       .  A
C2235      H2241   1.083       .  S
C2236      C2237   1.406   1_545  A
C2237      C2238   1.395       .  A
C2237      H2242   1.080       .  S
C2238      C2239   1.403       .  A
C2238      H2243   1.083       .  S
C2240      H2244   1.080       .  S
C2245      C2250   1.400       .  A
C2245      H2251   1.077       .  S
C2246      C2247   1.398       .  A
C2247      C2248   1.391       .  A
C2247      H2252   1.080       .  S
C2248      C2249   1.407       .  A
C2248      H2253   1.082       .  S
C2250      H2254   1.083       .  S
C2255      C2260   1.390       .  A
C2255      H2261   1.084       .  S
C2256      C2257   1.409       .  A
C2257      C2258   1.399       .  A
C2257      H2262   1.082       .  S
C2258      H2263   1.083       .  S
C2259      C2260   1.400       .  A
C2260      H2264   1.084       .  S
C2265      C2266   1.256       .  T
C2267      C2268   1.237       .  T
C2269      C2270   1.255       .  T
C2271      C2272   1.258       .  T
C2273      C2274   1.402       .  A
C2273      C2278   1.398       .  A
C2273      H2279   1.079       .  S
C2274      C2275   1.409       .  A
C2275      C2276   1.391       .  A
C2275      H2280   1.083       .  S
C2276      C2277   1.398       .  A
C2276      H2281   1.083       .  S
C2277      C2278   1.407       .  A
C2278      H2282   1.082       .  S
C2283      C2284   1.397       .  A
C2283      C2288   1.393       .  A
C2283      H2289   1.084       .  S
C2284      C2285   1.408       .  A
C2285      C2286   1.392       .  A
C2285      H2290   1.083       .  S
C2286      C2287   1.397       .  A
C2286      H2291   1.079       .  S
C2287      C2288   1.414       .  A
C2288      H2292   1.078       .  S
C2293      C2294   1.401       .  A
C2293      C2298   1.391       .  A
C2293      H2299   1.084       .  S
C2294      C2295   1.407       .  A
C2295      C2296   1.402       .  A
C2295      H2300   1.083       .  S
C2296      C2297   1.403       .  A
C2296      H2301   1.077       .  S
C2297      C2298   1.405       .  A
C2298      H2302   1.081       .  S
C2303      C2304   1.402       .  A
C2303      C2308   1.390   1_655  A
C2303      H2309   1.084       .  S
C2304      C2305   1.401       .  A
C2305      C2306   1.391       .  A
C2305      H2310   1.084       .  S
C2306      C2307   1.402       .  A
C2306      H2311   1.083       .  S
C2307      C2308   1.399   1_655  A
C2308      H2312   1.082       .  S
C2313      C2314   1.236       .  T
C2315      C2316   1.250       .  T
C2317      C2318   1.254       .  T
C2319      C2320   1.253       .  T
