geometry optimzed in LAMMPS
_audit_creation_date              2020-12-01 
_audit_creation_method            'lammps2cif' 
_symmetry_space_group_name_H-M    'P1' 
_symmetry_Int_Tables_number       1 
_symmetry_cell_setting            triclinic 
loop_ 
_symmetry_equiv_pos_as_xyz 
  x,y,z 
_cell_length_a                    37.55293666 
_cell_length_b                    37.53810735725639 
_cell_length_c                    61.9464495056718 
_cell_angle_alpha                 90.07031055584063 
_cell_angle_beta                  89.81587049767468 
_cell_angle_gamma                 90.02051930378424 
loop_ 
_atom_site_label 
_atom_site_type_symbol 
_atom_site_fract_x 
_atom_site_fract_y 
_atom_site_fract_z 
_atom_site_charge 
C1          C  0.43983456  0.31320615  0.35278591     0.80000
N2          N  0.45454683  0.34115866  0.34216033    -0.78300
C3          C  0.44234863  0.35099330  0.32252830     0.82400
N4          N  0.41514421  0.33281771  0.31335080    -0.78300
C5          C  0.40050012  0.30446258  0.32363559     0.82500
N6          N  0.41291362  0.29457766  0.34335096    -0.80000
C7          C  0.39274879  0.35848335  0.17624362     0.80000
N8          N  0.42017865  0.37549428  0.18621387    -0.78300
C9          C  0.43008099  0.36606310  0.20644363     0.82400
N10         N  0.41173278  0.34040583  0.21703684    -0.78300
C11         C  0.38512641  0.32237900  0.20713547     0.82500
N12         N  0.37531344  0.33167646  0.18675553    -0.80000
C13         C  0.17086294  0.35338953  0.35966795     0.80000
N14         N  0.14517616  0.37133651  0.34873196    -0.78300
C15         C  0.13904946  0.36421938  0.32758069     0.82400
N16         N  0.15953593  0.33987131  0.31713821    -0.78300
C17         C  0.18444796  0.32094136  0.32806442     0.82500
N18         N  0.19033626  0.32796794  0.34931167    -0.80000
C19         C  0.44191006  0.12242842  0.18425822     0.80000
N20         N  0.41462457  0.13925119  0.19437908    -0.78300
C21         C  0.40096389  0.12598853  0.21306347     0.82400
N22         N  0.41498462  0.09582917  0.22177278    -0.78300
C23         C  0.44272131  0.07922798  0.21178517     0.82500
N24         N  0.45577075  0.09243595  0.19299098    -0.80000
C25         C  0.45817397  0.38154658  0.31158334     0.42200
N26         N  0.99127052  0.42344756  0.30539100     0.01100
C27         C  0.99010782  0.03359031  0.21311765    -0.06800
H28         H  0.00145331  0.39682305  0.19690927     0.06600
C29         C  0.12165272  0.39946442  0.24230400    -0.07100
Co30       Co  0.46860955  0.46558065  0.26558861     0.74200
N31         N  0.99515037  0.42568335  0.22692657    -0.26300
Co32       Co  0.03551010  0.46406699  0.22784402     0.74100
C33         C  0.10963210  0.38169700  0.22271782     0.42300
N34         N  0.09646310  0.42595520  0.29311178     0.00700
N35         N  0.07495464  0.42539524  0.22945773     0.00800
N36         N  0.44711766  0.02882703  0.23825635    -0.47100
H37         H  0.42352483  0.39221119  0.28170974     0.06600
N38         N  0.47130601  0.42759785  0.24130182     0.01100
N39         N  0.07469506  0.00727923  0.22778307     0.00900
C40         C  0.11121645  0.04953033  0.22055317     0.42500
N41         N  0.07130075  0.42544212  0.30803896    -0.25800
C42         C  0.44259142  0.02667513  0.29230188    -0.06700
N43         N  0.98592492  0.39674227  0.31898612    -0.46900
N44         N  0.08283646  0.03135907  0.21286565    -0.47100
C45         C  0.45236409  0.04206624  0.31299403     0.42200
N46         N  0.46988651  0.00220694  0.24103579     0.01100
N47         N  0.06746746  0.00610041  0.30661137    -0.25800
N48         N  0.46832460  0.42612437  0.28916629    -0.26300
N49         N  0.09318927  0.00717131  0.29203003     0.00700
H50         H  0.05628412  0.03770365  0.33500037     0.06600
H51         H  0.14352246  0.03923924  0.25131072     0.06700
N52         N  0.99519204  0.00598747  0.22637915    -0.26300
N53         N  0.09864018  0.42626368  0.24518976    -0.25900
N54         N  0.98789371  0.00311605  0.30497613     0.01100
C55         C  0.45534284  0.38794676  0.21847155     0.42500
C56         C  0.08008076  0.40117135  0.32302901    -0.07200
N57         N  0.09708122  0.00772133  0.24415279    -0.25900
H58         H  0.14424848  0.39353661  0.25246725     0.06700
N59         N  0.44651524  0.40352308  0.23730938    -0.47100
H60         H  0.06575591  0.39618690  0.33789614     0.06600
C61         C  0.10469181  0.05042793  0.31340041     0.42300
C62         C  0.44593601  0.39870309  0.29190890    -0.06700
Co63       Co  0.03017657  0.46291801  0.30762142     0.73800
N64         N  0.12232131  0.40288038  0.29696072    -0.46900
C65         C  0.45884786  0.04699215  0.22082876     0.42600
N66         N  0.97898835  0.02608014  0.32036657    -0.46900
Co67       Co  0.09752397  0.46521889  0.26937592     0.73900
C68         C  0.12073551  0.03387808  0.24117670    -0.07200
C69         C  0.98698116  0.40133105  0.21178644    -0.06700
N70         N  0.46642895  0.00078888  0.28899748    -0.26300
N71         N  0.08065481  0.39917503  0.21550742    -0.47000
H72         H  0.00689188  0.04075751  0.19957977     0.06600
C73         C  0.07253124  0.03245090  0.32090205    -0.07200
Cl74       Cl  0.03289800  0.46391541  0.26773281    -0.50200
C75         C  0.11363540  0.38589791  0.31538729     0.42400
H76         H  0.41976931  0.03222444  0.28224323     0.06600
N77         N  0.11613538  0.03333187  0.29552427    -0.46900
C78         C  0.13214634  0.31122141  0.18285709     0.80000
N79         N  0.11512718  0.33887391  0.19275392    -0.78300
C80         C  0.12715281  0.35171968  0.21191792     0.82400
N81         N  0.15624702  0.33704418  0.22116427    -0.78300
C82         C  0.17337676  0.30960458  0.21152959     0.82500
N83         N  0.16141539  0.29677137  0.19236673    -0.80000
C84         C  0.39728153  0.07618990  0.35794103     0.80000
N85         N  0.37841772  0.10210503  0.34766887    -0.78300
C86         C  0.38477691  0.10927343  0.32650938     0.82400
N87         N  0.40946633  0.09008806  0.31557508    -0.78300
C88         C  0.42938063  0.06534139  0.32581871     0.82500
N89         N  0.42308004  0.05819691  0.34694733    -0.80000
C90         C  0.13130776  0.11762368  0.35398949     0.80000
N91         N  0.15889113  0.13394709  0.34361887    -0.78300
C92         C  0.16907146  0.12302675  0.32357625     0.82400
N93         N  0.15152037  0.09577042  0.31386381    -0.78300
C94         C  0.12363569  0.07979799  0.32391376     0.82500
N95         N  0.11365052  0.09079321  0.34388503    -0.80000
C96         C  0.16645820  0.08638812  0.17632319     0.80000
N97         N  0.18473534  0.11199811  0.18714736    -0.78300
C98         C  0.17836632  0.11819127  0.20832689     0.82400
N99         N  0.15392112  0.09816958  0.21894566    -0.78300
C100        C  0.13431074  0.07353316  0.20816778     0.82500
N101        N  0.14096733  0.06728265  0.18690150    -0.80000
C102        C  0.36331851  0.29805379  0.22017878     0.42200
N103        N  0.32416535  0.25904530  0.22888682     0.01100
C104        C  0.22311888  0.26281346  0.32365479    -0.06800
H105        H  0.35756948  0.23762109  0.33531399     0.06600
C106        C  0.34586240  0.12352122  0.29337757    -0.07100
Co107      Co  0.28634092  0.28028253  0.26949855     0.74200
N108        N  0.32435880  0.25028932  0.30794037    -0.26300
Co109      Co  0.28395784  0.21231036  0.30759931     0.74100
C110        C  0.36097825  0.13244106  0.31424660     0.42300
N111        N  0.32352926  0.15332469  0.24218974     0.00700
N112        N  0.32099972  0.17084624  0.30646776     0.00800
N113        N  0.22435176  0.30496642  0.29761473    -0.47100
H114        H  0.35380892  0.32993558  0.25131107     0.06600
N115        N  0.32541354  0.27602908  0.29340298     0.01100
N116        N  0.24361045  0.17412334  0.30562633     0.00900
C117        C  0.19922838  0.14004965  0.31244440     0.42500
N118        N  0.32407782  0.17947092  0.22792672    -0.25800
C119        C  0.22116407  0.30561201  0.24208242    -0.06700
N120        N  0.34612188  0.26867975  0.21307128    -0.42900
N121        N  0.21758578  0.16853656  0.31975587    -0.47100
C122        C  0.20432053  0.29382444  0.22210847     0.42200
N123        N  0.24746582  0.27916371  0.29355487     0.01100
N124        N  0.24640131  0.17949911  0.22699720    -0.25800
N125        N  0.32484961  0.28139572  0.24533186    -0.26300
N126        N  0.24509121  0.15433835  0.24181225     0.00700
H127        H  0.21573330  0.18877729  0.19807533     0.06600
H128        H  0.21006226  0.10558786  0.28236829     0.06700
N129        N  0.24720224  0.25405334  0.30845648    -0.26300
N130        N  0.32110704  0.14844209  0.29004682    -0.25900
N131        N  0.24722877  0.25871573  0.22939493     0.01100
C132        C  0.37033285  0.28592287  0.31374668     0.42500
C133        C  0.35238881  0.17542806  0.21499813    -0.07200
N134        N  0.24364263  0.15072022  0.28965707    -0.25900
H135        H  0.35068891  0.10053446  0.28323542     0.06700
N136        N  0.35255294  0.29799782  0.29633409    -0.47100
H137        H  0.35974652  0.19278444  0.20179153     0.06600
C138        C  0.20230574  0.14155928  0.22038789     0.42300
C139        C  0.34929046  0.30653491  0.24148405    -0.06700
Co140      Co  0.28548594  0.21904320  0.22784012     0.73800
N141        N  0.35059869  0.13094391  0.23968048    -0.46900
C142        C  0.20772955  0.29631343  0.31619992     0.42600
N143        N  0.22182123  0.26471717  0.21509113    -0.46900
Co144      Co  0.28335318  0.15097946  0.26581850     0.73900
C145        C  0.21636890  0.12814415  0.29254487    -0.07200
C146        C  0.35174519  0.25437527  0.32157945    -0.06700
N147        N  0.24753804  0.28220956  0.24530631    -0.26300
N148        N  0.34400657  0.16170716  0.32171914    -0.47000
H149        H  0.21807754  0.24829397  0.33841981     0.06600
C150        C  0.22062463  0.17333070  0.21249127    -0.07200
Cl151      Cl  0.28473969  0.21569099  0.26770755    -0.50200
C152        C  0.36991215  0.14344493  0.22287055     0.42400
H153        H  0.21504504  0.32831617  0.25219986     0.06600
N154        N  0.21930584  0.13099220  0.23838629    -0.46900
C155        C  0.26349694  0.46076808  0.49753909     0.02100
C156        C  0.29073407  0.48711122  0.49747234     0.02000
C157        C  0.30235877  0.50098877  0.51730278    -0.18500
C158        C  0.28894994  0.48831813  0.53694709     0.02100
C159        C  0.26187628  0.46215705  0.53714119     0.02000
C160        C  0.24942659  0.44884350  0.51738611    -0.18500
H161        H  0.22872864  0.42870215  0.51744487     0.04100
H162        H  0.32833947  0.01652379  0.51809867     0.04100
C163        C  0.01551852  0.20514260  0.03688155     0.02100
C164        C  0.04327429  0.23061120  0.03696948     0.02000
C165        C  0.05570398  0.24424732  0.01729139    -0.18500
C166        C  0.04130612  0.23277163  0.99756855     0.02100
C167        C  0.01407215  0.20667022  0.99753571     0.02000
C168        C  0.50788661  0.18955230  0.01778976    -0.18500
H169        H  0.48815893  0.16850515  0.01872211     0.04100
H170        H  0.07696053  0.26380413  0.01730557     0.04100
C171        C  0.04301589  0.20427799  0.49937118     0.02100
C172        C  0.01749179  0.23190385  0.49890878     0.02000
C173        C  0.00420174  0.24591253  0.51832322    -0.18500
C174        C  0.01567219  0.23288509  0.53839454     0.02100
C175        C  0.04097354  0.20480278  0.53882744     0.02000
C176        C  0.05395305  0.19067055  0.51931013    -0.18500
H177        H  0.07324765  0.16918955  0.51963228     0.04100
H178        H  0.49720895  0.27619958  0.51842546     0.04100
C179        C  0.26317362  0.49111385  0.03840587     0.02100
C180        C  0.28819742  0.46276437  0.04002939     0.02000
C181        C  0.30086784  0.44671829  0.02095557    -0.18500
C182        C  0.28986151  0.45837787  0.00058581     0.02100
C183        C  0.26457212  0.48602133  0.99906122     0.02000
C184        C  0.25146400  0.50185643  0.01789797    -0.18500
H185        H  0.23754256  0.01894971  0.01902745     0.04100
H186        H  0.31935317  0.42461022  0.02197207     0.04100
C187        C  0.37846802  0.37087206  0.85660153     0.80000
N188        N  0.36248895  0.34343901  0.84612405    -0.78300
C189        C  0.37415294  0.33302865  0.82635844     0.82400
N190        N  0.40204393  0.35003979  0.81697815    -0.78300
C191        C  0.41785507  0.37778428  0.82720264     0.82500
N192        N  0.40594425  0.38824954  0.84693628    -0.80000
C193        C  0.40926329  0.10354820  0.86150796     0.80000
N194        N  0.38388125  0.12254190  0.85087942    -0.78300
C195        C  0.37705031  0.11597427  0.82975543     0.82400
N196        N  0.39659281  0.09121201  0.81906308    -0.78300
C197        C  0.42135495  0.07148266  0.82951897     0.82500
N198        N  0.42791035  0.07789019  0.85074907    -0.80000
C199        C  0.17769110  0.06966858  0.85632807     0.80000
N200        N  0.19382019  0.09876122  0.84758539    -0.78300
C201        C  0.18275785  0.11199831  0.82830664     0.82400
N202        N  0.15508295  0.09635223  0.81790764    -0.78300
C203        C  0.13880191  0.06732461  0.82651497     0.82500
N204        N  0.15024727  0.05397305  0.84566825    -0.80000
C205        C  0.14040979  0.33747334  0.86025414     0.80000
N206        N  0.12224899  0.36363731  0.84981967    -0.78300
C207        C  0.13065971  0.37206575  0.82907702     0.82400
N208        N  0.15688357  0.35382114  0.81871187    -0.78300
C209        C  0.17615586  0.32881726  0.82936648     0.82500
N210        N  0.16739147  0.32029423  0.84994811    -0.80000
C211        C  0.14011190  0.11256419  0.67920941     0.80000
N212        N  0.16504532  0.13087156  0.69066137    -0.78300
C213        C  0.17044502  0.12354490  0.71186117     0.82400
N214        N  0.15026368  0.09850256  0.72179809    -0.78300
C215        C  0.12624703  0.07924461  0.71042437     0.82500
N216        N  0.12095760  0.08650928  0.68920475    -0.80000
C217        C  0.36978748  0.06427113  0.68542273     0.80000
N218        N  0.39831360  0.04878987  0.69495538    -0.78300
C219        C  0.41045050  0.06072504  0.71424299     0.82400
N220        N  0.39421804  0.08888494  0.72399193    -0.78300
C221        C  0.36551720  0.10454469  0.71457197     0.82500
N222        N  0.35337947  0.09211804  0.69532436    -0.80000
C223        C  0.35661487  0.30353174  0.81526264     0.42200
N224        N  0.32071337  0.26084696  0.80864455     0.01100
C225        C  0.31650521  0.15403901  0.71707471    -0.06800
H226        H  0.31164280  0.28657752  0.69965384     0.06600
C227        C  0.19218737  0.29182609  0.74574405    -0.07100
Co228      Co  0.34205913  0.21984345  0.76906241     0.74200
N229        N  0.31678812  0.25825599  0.72986544    -0.26300
Co230      Co  0.27473861  0.22209139  0.73103823     0.74100
C231        C  0.20491017  0.30880920  0.72600303     0.42300
N232        N  0.21623813  0.26393944  0.79621341     0.00700
N233        N  0.23725037  0.26310338  0.73264937     0.00800
N234        N  0.36018521  0.15309890  0.74221948    -0.47100
H235        H  0.39090790  0.29090370  0.78535294     0.06600
N236        N  0.34175885  0.25803852  0.74479938     0.01100
N237        N  0.23296969  0.18551650  0.73257898     0.00900
C238        C  0.19421860  0.14578028  0.72479674     0.42500
N239        N  0.24097148  0.26318664  0.81127699    -0.25800
C240        C  0.36447848  0.15513356  0.79649634    -0.06700
N241        N  0.32724272  0.28676202  0.82257784    -0.46900
N242        N  0.22374078  0.16235703  0.71741384    -0.47100
C243        C  0.35449944  0.14024876  0.81727764     0.42200
N244        N  0.33805987  0.18018005  0.74534367     0.01100
N245        N  0.23963652  0.18582135  0.81175594    -0.25800
N246        N  0.34426826  0.25943932  0.79276868    -0.26300
N247        N  0.21397330  0.18583008  0.79721255     0.00700
H248        H  0.25000869  0.15342477  0.83982821     0.06600
H249        H  0.16194721  0.15712625  0.75561607     0.06700
N250        N  0.31234500  0.18128796  0.73084888    -0.26300
N251        N  0.21370775  0.26374332  0.74854962    -0.25900
N252        N  0.31920595  0.18338091  0.80979550     0.01100
C253        C  0.35957454  0.29681776  0.72191778     0.42500
C254        C  0.23356328  0.28888975  0.82576933    -0.07200
N255        N  0.21038306  0.18598194  0.74893665    -0.25900
H256        H  0.16997477  0.29903750  0.75600975     0.06700
N257        N  0.36788012  0.28066725  0.74063547    -0.47100
H258        H  0.24799594  0.29383155  0.84055615     0.06600
C259        C  0.20094374  0.14279534  0.81860570     0.42300
C260        C  0.36806699  0.28565843  0.79554319    -0.06700
Co261      Co  0.28021222  0.22337068  0.81087104     0.73800
N262        N  0.19218347  0.28911697  0.79940593    -0.46900
C263        C  0.34807494  0.13538398  0.72472522     0.42600
N264        N  0.32664784  0.15943183  0.82490519    -0.46900
Co265      Co  0.21293047  0.22474769  0.77275815     0.73900
C266        C  0.18522326  0.16136275  0.74561269    -0.07200
C267        C  0.32596149  0.28175970  0.71448557    -0.06700
N268        N  0.34158263  0.18184797  0.79334478    -0.26300
N269        N  0.23277996  0.28948350  0.71865254    -0.47000
H270        H  0.29989606  0.14844771  0.70324596     0.06600
C271        C  0.23364322  0.15963098  0.82599661    -0.07200
Cl272      Cl  0.27748986  0.22248010  0.77094024    -0.50200
C273        C  0.20152552  0.30647918  0.81751492     0.42400
H274        H  0.38700165  0.14874717  0.78627742     0.06600
N275        N  0.19017185  0.16032801  0.80071383    -0.46900
C276        C  0.41918946  0.33081499  0.67890183     0.80000
N277        N  0.43678219  0.35682609  0.68993343    -0.78300
C278        C  0.42870105  0.36372820  0.71090681     0.82400
N279        N  0.40344533  0.34418656  0.72107039    -0.78300
C280        C  0.38465872  0.31935507  0.71010042     0.82500
N281        N  0.39273388  0.31247585  0.68911598    -0.80000
C282        C  0.18272023  0.37696708  0.68459024     0.80000
N283        N  0.15406782  0.39295108  0.69405983    -0.78300
C284        C  0.14276007  0.38237337  0.71389334     0.82400
N285        N  0.15980416  0.35540968  0.72409801    -0.78300
C286        C  0.18820076  0.33909102  0.71483693     0.82500
N287        N  0.19967125  0.34992532  0.69505245    -0.80000
C288        C  0.45055376  0.38812463  0.72360307     0.42200
N289        N  0.48954670  0.42766158  0.73123564     0.01100
C290        C  0.09051509  0.42892753  0.82452979    -0.06800
H291        H  0.45745221  0.44607954  0.83804820     0.06600
C292        C  0.46060366  0.05932665  0.79591355    -0.07100
Co293      Co  0.02773546  0.40822777  0.77077549     0.74200
N294        N  0.48991559  0.43555854  0.80994849    -0.26300
Co295      Co  0.02673978  0.47574587  0.80902072     0.74100
C296        C  0.44555064  0.04913169  0.81668620     0.42300
N297        N  0.48589029  0.03241687  0.74451064     0.00700
N298        N  0.48824586  0.01351829  0.80872897     0.00800
N299        N  0.09136167  0.38682905  0.79843073    -0.47100
H300        H  0.46257583  0.35620358  0.75432562     0.06600
N301        N  0.49036098  0.40952921  0.79557375     0.01100
N302        N  0.06521268  0.01571019  0.80830519     0.00900
C303        C  0.10865795  0.05069896  0.81530310     0.42500
N304        N  0.48652656  0.00666933  0.72992993    -0.25800
C305        C  0.09446690  0.38666634  0.74404687    -0.06700
N306        N  0.46659020  0.41786930  0.71611846    -0.46900
N307        N  0.09119208  0.02150209  0.82229277    -0.47100
C308        C  0.11160649  0.39879929  0.72428236     0.42200
N309        N  0.06672240  0.41122534  0.79462040     0.01100
N310        N  0.06307177  0.01240718  0.72928156    -0.25800
N311        N  0.49046010  0.40513505  0.74756347    -0.26300
N312        N  0.06308617  0.03719961  0.74440798     0.00700
H313        H  0.09212785  0.00698692  0.69924867     0.06600
H314        H  0.09680666  0.08571187  0.78565495     0.06700
N315        N  0.06572770  0.43624233  0.80958320    -0.26300
N316        N  0.48707820  0.03614871  0.79248343    -0.25900
N317        N  0.06622516  0.43170891  0.73067072     0.01100
C318        C  0.44747671  0.39661180  0.81695764     0.42500
C319        C  0.45933274  0.01128897  0.71628776    -0.07200
N320        N  0.06435492  0.03951282  0.79259444    -0.25900
H321        H  0.45444756  0.08207460  0.78589639     0.06700
N322        N  0.46519371  0.38548903  0.79918412    -0.47100
H323        H  0.45340322  0.99476100  0.70244061     0.06600
C324        C  0.10278689  0.05450713  0.72189493     0.42300
C325        C  0.46629840  0.37954310  0.74434225    -0.06700
Co326      Co  0.02570565  0.46981514  0.72924594     0.73800
N327        N  0.45915580  0.05497191  0.74158549    -0.46900
C328        C  0.10786832  0.39646514  0.81683488     0.42600
N329        N  0.09270090  0.42675402  0.71672622    -0.46900
Co330      Co  0.02477631  0.03782257  0.76868081     0.73900
C331        C  0.09099058  0.06283793  0.79566460    -0.07200
C332        C  0.46375895  0.42963548  0.82420513    -0.06700
N333        N  0.06664170  0.40848327  0.74668278    -0.26300
N334        N  0.46437557  0.02092425  0.82395828    -0.47000
H335        H  0.09483402  0.44366760  0.83930613     0.06600
C336        C  0.08711502  0.02132340  0.71410467    -0.07200
Cl337      Cl  0.02616409  0.47279696  0.76913306    -0.50200
C338        C  0.44127587  0.04317908  0.72411453     0.42400
H339        H  0.10141665  0.36467613  0.75447762     0.06600
N340        N  0.08637624  0.06288338  0.74058037    -0.46900
C341        C  0.25114741  0.49886443  0.97797751    -0.20100
C342        C  0.27280858  0.51900569  0.96399886     0.36100
C343        C  0.25838152  0.03068294  0.94634908    -0.26100
C344        C  0.22435715  0.01943014  0.93991408     0.02500
C345        C  0.20447321  0.99679467  0.95366625     0.27400
C346        C  0.21914329  0.98566043  0.97327014    -0.25200
N347        N  0.30835891  0.52824916  0.97008467    -0.82600
H348        H  0.27373820  0.04822352  0.93601077     0.13200
C349        C  0.21029246  0.03214060  0.91892946     0.02500
N350        N  0.16909949  0.98550414  0.94843132    -0.81200
H351        H  0.20393782  0.96811290  0.98369168     0.18000
C352        C  0.20484868  0.00776045  0.90207701    -0.26000
C353        C  0.19401744  0.01930613  0.88150820     0.36000
C354        C  0.18907606  0.05607564  0.87767918    -0.20000
C355        C  0.19475416  0.08041949  0.89454305    -0.25300
C356        C  0.20484096  0.06878449  0.91520469     0.27400
H357        H  0.20586508  0.48208715  0.90422847     0.13200
N358        N  0.18902527  0.99396377  0.86436604    -0.82600
H359        H  0.19069769  0.10859496  0.89166288     0.18000
N360        N  0.20968626  0.09396425  0.93245828    -0.81200
H361        H  0.18585811  0.46921736  0.87018515     0.33600
H362        H  0.20839654  0.99904397  0.85260364     0.38100
H363        H  0.20479633  0.11991380  0.92706520     0.33600
H364        H  0.19052712  0.08849269  0.94426156     0.30300
H365        H  0.16993969  0.97050111  0.93421674     0.33600
H366        H  0.15350083  0.00809998  0.94579145     0.30300
H367        H  0.31033608  0.55602155  0.97027332     0.38200
H368        H  0.32566182  0.51866000  0.95816057     0.33600
C369        C  0.30454228  0.44118516  0.98097245    -0.20100
C370        C  0.34049289  0.44585793  0.97478159     0.36100
C371        C  0.35190470  0.43367893  0.95459693    -0.26100
C372        C  0.32835607  0.41627333  0.94056633     0.02500
C373        C  0.29293122  0.40987139  0.94716314     0.27400
C374        C  0.28140169  0.42238057  0.96736751    -0.25200
N375        N  0.36569370  0.46368424  0.98836412    -0.82600
H376        H  0.37932464  0.43799426  0.94974361     0.13200
C377        C  0.34119816  0.40503077  0.91899499     0.02500
N378        N  0.26864962  0.39147769  0.93312943    -0.81200
H379        H  0.25396663  0.41845094  0.97229472     0.18000
C380        C  0.34021097  0.36886570  0.91343440    -0.26000
C381        C  0.35217343  0.35720034  0.89319004     0.36000
C382        C  0.36581000  0.38206017  0.87821484    -0.20000
C383        C  0.36718618  0.41827200  0.88391228    -0.25300
C384        C  0.35449445  0.43009932  0.90404839     0.27400
H385        H  0.33028913  0.34951686  0.92495327     0.13200
N386        N  0.35118735  0.31996084  0.88814949    -0.82600
H387        H  0.37736286  0.43751378  0.87241774     0.18000
N388        N  0.35453769  0.46744815  0.90926872    -0.81200
H389        H  0.36614842  0.30638519  0.89973137     0.33600
H390        H  0.32478760  0.31133971  0.88940105     0.38100
H391        H  0.36515648  0.48232112  0.89654736     0.33600
H392        H  0.32798490  0.47547644  0.91102528     0.30300
H393        H  0.24373277  0.38873345  0.94049038     0.33600
H394        H  0.26488742  0.40738805  0.91946753     0.30300
H395        H  0.37171158  0.94493911  0.99951108     0.38200
H396        H  0.35904157  0.98527122  0.98988282     0.33600
C397        C  0.12988385  0.12480527  0.65726329    -0.20100
C398        C  0.11368838  0.10172032  0.64220456     0.36100
C399        C  0.10041474  0.11536024  0.62273740    -0.26100
C400        C  0.10306940  0.15173783  0.61788852     0.02500
C401        C  0.11984940  0.17489282  0.63263291     0.27400
C402        C  0.13345845  0.16112828  0.65203767    -0.25200
N403        N  0.11085264  0.06435146  0.64651629    -0.82600
H404        H  0.08779405  0.09744378  0.61135454     0.13200
C405        C  0.08728721  0.16524708  0.59756948     0.02500
N406        N  0.12211337  0.21239622  0.62809667    -0.81200
H407        H  0.14548302  0.17922001  0.66353997     0.18000
C408        C  0.05045391  0.16194188  0.59425055    -0.26000
C409        C  0.03454753  0.17439781  0.57515826     0.36000
C410        C  0.05600014  0.19069907  0.55923153    -0.20000
C411        C  0.09284046  0.19358916  0.56251769    -0.25300
C412        C  0.10859329  0.18103991  0.58149613     0.27400
H413        H  0.03412862  0.14966343  0.60663209     0.13200
N414        N  0.99688349  0.17049315  0.57186445    -0.82600
H415        H  0.10946500  0.20591233  0.55028791     0.18000
N416        N  0.14632518  0.18393274  0.58428458    -0.81200
H417        H  0.48600070  0.16725744  0.58608501     0.33600
H418        H  0.49272387  0.16183580  0.55947896     0.38100
H419        H  0.15872018  0.17045879  0.57152869     0.33600
H420        H  0.15321702  0.21085507  0.58317685     0.30300
H421        H  0.13523067  0.22578163  0.64056656     0.33600
H422        H  0.09616260  0.22245590  0.62766054     0.30300
H423        H  0.08390669  0.05737025  0.64604102     0.38200
H424        H  0.12396206  0.05060909  0.63413819     0.33600
C425        C  0.00123430  0.24952799  0.55849987    -0.20100
C426        C  0.47141326  0.25868446  0.56121493     0.36100
C427        C  0.45777887  0.27389566  0.58021265    -0.26100
C428        C  0.48025626  0.28395324  0.59719432     0.02500
C429        C  0.01192275  0.27788044  0.59354316     0.27400
C430        C  0.02470050  0.26328221  0.57406775    -0.25200
N431        N  0.44755012  0.24702355  0.54451259    -0.82600
H432        H  0.42926789  0.27734137  0.58198743     0.13200
C433        C  0.46384281  0.29722376  0.61759370     0.02500
N434        N  0.03636327  0.28937789  0.60995979    -0.81200
H435        H  0.05312470  0.26226052  0.57110843     0.18000
C436        C  0.43772776  0.27641895  0.62779151    -0.26000
C437        C  0.42177803  0.28728321  0.64723526     0.36000
C438        C  0.43208261  0.31984229  0.65700179    -0.20000
C439        C  0.45746135  0.34117760  0.64627548    -0.25300
C440        C  0.47312664  0.33029768  0.62671658     0.27400
H441        H  0.43004915  0.25108630  0.62078704     0.13200
N442        N  0.39576661  0.26455753  0.65709375    -0.82600
H443        H  0.46554590  0.36646597  0.65313261     0.18000
N444        N  0.49805686  0.35319428  0.61601870    -0.81200
H445        H  0.37495386  0.26086142  0.64615296     0.33600
H446        H  0.40756608  0.23977119  0.65993727     0.38100
H447        H  0.48535941  0.37742303  0.61288576     0.33600
H448        H  0.51908921  0.35819236  0.62661679     0.30300
H449        H  0.06265998  0.28493437  0.60503964     0.33600
H450        H  0.03356902  0.31688631  0.61181683     0.30300
H451        H  0.44987399  0.21935015  0.54322162     0.38200
H452        H  0.42110215  0.25231009  0.54875346     0.33600
C453        C  0.05585649  0.24821056  0.97736856    -0.20100
C454        C  0.03474263  0.26912280  0.96352319     0.36100
C455        C  0.05010301  0.28366965  0.94478937    -0.26100
C456        C  0.08611054  0.27791900  0.93975356     0.02500
C457        C  0.10739247  0.25724983  0.95385592     0.27400
C458        C  0.09189306  0.24269364  0.97243603    -0.25200
N459        N  0.49596055  0.26265519  0.96457773    -0.82600
H460        H  0.03392864  0.29950595  0.93397836     0.13200
C461        C  0.10033798  0.29328736  0.91948661     0.02500
N462        N  0.14461267  0.25055473  0.95000750    -0.81200
H463        H  0.10815765  0.22678401  0.98316806     0.18000
C464        C  0.10354532  0.33039479  0.91738225    -0.26000
C465        C  0.11680695  0.34568891  0.89821400     0.36000
C466        C  0.12713678  0.32327413  0.88100645    -0.20000
C467        C  0.12355688  0.28618445  0.88316624    -0.25300
C468        C  0.10985336  0.27112878  0.90211143     0.27400
H469        H  0.09584882  0.34735645  0.93077170     0.13200
N470        N  0.12016202  0.38368715  0.89623910    -0.82600
H471        H  0.13065291  0.26877244  0.86985891     0.18000
N472        N  0.10516692  0.23333312  0.90362192    -0.81200
H473        H  0.11138557  0.39630000  0.91034086     0.33600
H474        H  0.14726535  0.38958132  0.89467523     0.38100
H475        H  0.08812454  0.22532529  0.89121064     0.33600
H476        H  0.12989366  0.22123986  0.90105092     0.30300
H477        H  0.15879960  0.26139928  0.96294192     0.33600
H478        H  0.15387465  0.26357175  0.93623626     0.30300
H479        H  0.49121314  0.27815785  0.97831905     0.38200
H480        H  0.48262027  0.27491119  0.95179923     0.33600
C481        C  0.42215959  0.11650754  0.88266814    -0.20100
C482        C  0.43136060  0.09313971  0.89957799     0.36100
C483        C  0.44663519  0.10707188  0.91856239    -0.26100
C484        C  0.45306879  0.14373882  0.92076481     0.02500
C485        C  0.44407688  0.16703685  0.90383242     0.27400
C486        C  0.42829108  0.15322027  0.88509207    -0.25200
N487        N  0.42507854  0.05553604  0.89742207    -0.82600
H488        H  0.45374095  0.08934800  0.93165233     0.13200
C489        C  0.46964628  0.15752273  0.94076834     0.02500
N490        N  0.45243332  0.20436595  0.90534985    -0.81200
H491        H  0.42200781  0.17109271  0.87191592     0.18000
C492        C  0.50682444  0.15692225  0.94282991    -0.26000
C493        C  0.01874466  0.17319119  0.96222176     0.36000
C494        C  0.50256765  0.18624152  0.97785001    -0.20000
C495        C  0.46527059  0.18579200  0.97596284    -0.25300
C496        C  0.44858275  0.17138017  0.95765180     0.27400
H497        H  0.01803840  0.14548429  0.93163259     0.13200
N498        N  0.05574649  0.16621179  0.96628664    -0.82600
H499        H  0.44913516  0.19714174  0.98876972     0.18000
N500        N  0.41037102  0.17001250  0.95634317    -0.81200
H501        H  0.06698168  0.15162329  0.95359978     0.33600
H502        H  0.05725009  0.15015559  0.98003768     0.38100
H503        H  0.39884230  0.18040769  0.97038382     0.33600
H504        H  0.40232062  0.18649952  0.94370318     0.30300
H505        H  0.44510627  0.21761584  0.89120198     0.33600
H506        H  0.43707180  0.21537407  0.91774533     0.30300
H507        H  0.39756235  0.05173783  0.89634144     0.38200
H508        H  0.43342642  0.04207068  0.91128401     0.33600
C509        C  0.30562188  0.50064172  0.55720439    -0.20100
C510        C  0.30712954  0.03492461  0.56402242     0.36100
C511        C  0.31901363  0.04505969  0.58464526    -0.26100
C512        C  0.32985219  0.01941961  0.59969655     0.02500
C513        C  0.33538981  0.48487975  0.59078642     0.27400
C514        C  0.32240897  0.47543915  0.57040222    -0.25200
N515        N  0.29388652  0.06117831  0.54920569    -0.82600
H516        H  0.31890563  0.07291750  0.58925780     0.13200
C517        C  0.34024813  0.03091562  0.62159100     0.02500
N518        N  0.34845802  0.45792681  0.60521893    -0.81200
H519        H  0.32404234  0.44797766  0.56507966     0.18000
C520        C  0.31362372  0.03832947  0.63687129    -0.26000
C521        C  0.32246281  0.04916166  0.65793701     0.36000
C522        C  0.35867077  0.05241939  0.66369818    -0.20000
C523        C  0.38519090  0.04487497  0.64832437    -0.25300
C524        C  0.37635882  0.03466398  0.62720862     0.27400
H525        H  0.28591666  0.03546326  0.63232864     0.13200
N526        N  0.29492973  0.05628553  0.67352878    -0.82600
H527        H  0.41296422  0.04789565  0.65266206     0.18000
N528        N  0.40380501  0.02960077  0.61123840    -0.81200
H529        H  0.26977967  0.05281254  0.66663517     0.33600
H530        H  0.29714115  0.03727592  0.68577228     0.38100
H531        H  0.42889335  0.03456575  0.61787126     0.33600
H532        H  0.40378603  0.00287919  0.60657074     0.30300
H533        H  0.34629057  0.43270171  0.59817517     0.33600
H534        H  0.37558323  0.46231137  0.60767851     0.30300
H535        H  0.26683915  0.05601200  0.54678479     0.38200
H536        H  0.29551504  0.08666291  0.55598059     0.33600
C537        C  0.19416918  0.38814819  0.66264503    -0.20100
C538        C  0.23035756  0.39410301  0.65739738     0.36100
C539        C  0.23944359  0.40650361  0.63662733    -0.26100
C540        C  0.21326864  0.41227644  0.62091322     0.02500
C541        C  0.17728788  0.40531675  0.62589575     0.27400
C542        C  0.16806731  0.39384300  0.64680539    -0.25200
N543        N  0.25759558  0.38890086  0.67334161    -0.82600
H544        H  0.26708055  0.41166379  0.63261546     0.13200
C545        C  0.22405151  0.42515422  0.59919902     0.02500
N546        N  0.15042584  0.40888271  0.60954163    -0.81200
H547        H  0.14036117  0.38882418  0.65069840     0.18000
C548        C  0.23674240  0.40066743  0.58388549    -0.26000
C549        C  0.24857575  0.41198998  0.56339972     0.36000
C550        C  0.24674880  0.44848284  0.55793472    -0.20000
C551        C  0.23322206  0.47278783  0.57319980    -0.25300
C552        C  0.22272654  0.46165288  0.59394498     0.27400
H553        H  0.23814844  0.37271733  0.58815141     0.13200
N554        N  0.26335114  0.38675352  0.54837685    -0.82600
H555        H  0.23192479  0.50078952  0.56911520     0.18000
N556        N  0.21236346  0.48741562  0.60998476    -0.81200
H557        H  0.26276039  0.36105205  0.55486424     0.33600
H558        H  0.29018143  0.39323298  0.54612379     0.38100
H559        H  0.21417863  0.51322490  0.60377099     0.33600
H560        H  0.18556553  0.48324413  0.61378102     0.30300
H561        H  0.12545797  0.40172722  0.61566105     0.33600
H562        H  0.14867878  0.43574120  0.60530812     0.30300
H563        H  0.25979339  0.36152258  0.67604944     0.38200
H564        H  0.28235197  0.39707249  0.66735769     0.33600
C565        C  0.25452011  0.00017401  0.05915447    -0.20100
C566        C  0.25969710  0.03646388  0.06394197     0.36100
C567        C  0.24469155  0.05100228  0.08271497    -0.26100
C568        C  0.22472184  0.02975635  0.09691837     0.02500
C569        C  0.21984632  0.99325346  0.09227948     0.27400
C570        C  0.23452127  0.97890079  0.07329022    -0.25200
N571        N  0.28055434  0.05845955  0.04986966    -0.82600
H572        H  0.24860476  0.07902585  0.08621748     0.13200
C573        C  0.20956577  0.04593804  0.11675509     0.02500
N574        N  0.20034206  0.97091078  0.10697930    -0.81200
H575        H  0.19396425  0.50055851  0.04705021     0.18000
C576        C  0.17267035  0.04448978  0.12045168    -0.26000
C577        C  0.15770123  0.05836580  0.13948789     0.36000
C578        C  0.17986624  0.07453415  0.15497073    -0.20000
C579        C  0.21667758  0.07687985  0.15087781    -0.25300
C580        C  0.23180636  0.06231144  0.13212428     0.27400
H581        H  0.15544176  0.03224255  0.10856118     0.13200
N582        N  0.12004128  0.05619334  0.14293272    -0.82600
H583        H  0.23408292  0.08870169  0.16282248     0.18000
N584        N  0.20151206  0.49217574  0.12750401    -0.81200
H585        H  0.10740914  0.06920014  0.13015320     0.33600
H586        H  0.11271359  0.02933408  0.14242694     0.38100
H587        H  0.19490195  0.47732956  0.14120791     0.33600
H588        H  0.18590064  0.48223717  0.11493066     0.30300
H589        H  0.19904956  0.94479909  0.10112088     0.33600
H590        H  0.21465613  0.96988058  0.12140937     0.30300
H591        H  0.31272326  0.54314184  0.05641373     0.38200
H592        H  0.30171296  0.06897294  0.05878126     0.33600
C593        C  0.12027506  0.12917334  0.37601040    -0.20100
C594        C  0.10257520  0.10582168  0.39038309     0.36100
C595        C  0.09137203  0.11814606  0.41066649    -0.26100
C596        C  0.09720228  0.15349552  0.41706417     0.02500
C597        C  0.11549668  0.17681085  0.40299201     0.27400
C598        C  0.12707510  0.16432289  0.38270721    -0.25200
N599        N  0.09639728  0.06933796  0.38469299    -0.82600
H600        H  0.07795550  0.09989804  0.42153472     0.13200
C601        C  0.08346771  0.16563839  0.43840401     0.02500
N602        N  0.12162965  0.21322437  0.40916985    -0.81200
H603        H  0.14062755  0.18246504  0.37185319     0.18000
C604        C  0.10688282  0.18092361  0.45339514    -0.26000
C605        C  0.09473118  0.19373204  0.47338799     0.36000
C606        C  0.05833905  0.18935809  0.47907292    -0.20000
C607        C  0.03518970  0.17300560  0.46429630    -0.25300
C608        C  0.04710808  0.16210238  0.44381755     0.27400
H609        H  0.13483502  0.18369314  0.44932183     0.13200
N610        N  0.11991264  0.21185251  0.48700787    -0.82600
H611        H  0.00732299  0.16999010  0.46849632     0.18000
N612        N  0.02229653  0.14828484  0.42828077    -0.81200
H613        H  0.12929009  0.23400698  0.47849088     0.33600
H614        H  0.10808533  0.22198376  0.50095085     0.38100
H615        H  0.99651170  0.14783837  0.43469543     0.33600
H616        H  0.02178992  0.16599561  0.41527236     0.30300
H617        H  0.13549634  0.22681760  0.39704888     0.33600
H618        H  0.09681606  0.22560419  0.41063234     0.30300
H619        H  0.06897882  0.06459281  0.38543498     0.38200
H620        H  0.10872863  0.05323545  0.39622194     0.33600
C621        C  0.30747879  0.50138070  0.47731992    -0.20100
C622        C  0.34501574  0.50288632  0.47498772     0.36100
C623        C  0.36060663  0.01113267  0.45460840    -0.26100
C624        C  0.33876363  0.02774729  0.43932479     0.02500
C625        C  0.30166746  0.02949106  0.44294672     0.27400
C626        C  0.28744253  0.01590283  0.46228918    -0.25200
N627        N  0.36768920  0.48739834  0.49111369    -0.82600
H628        H  0.38894275  0.00906230  0.45147537     0.13200
C629        C  0.35510000  0.04080742  0.41899262     0.02500
N630        N  0.27842944  0.04344089  0.42660567    -0.81200
H631        H  0.25907774  0.01785540  0.46531743     0.18000
C632        C  0.36936396  0.01600550  0.40444399    -0.26000
C633        C  0.38444322  0.02692798  0.38473505     0.36000
C634        C  0.38546563  0.06369843  0.37953730    -0.20000
C635        C  0.37213805  0.08852370  0.39450447    -0.25300
C636        C  0.35744014  0.07739354  0.41425718     0.27400
H637        H  0.35486004  0.49343688  0.40658094     0.13200
N638        N  0.39748215  0.00065097  0.36975311    -0.82600
H639        H  0.37307658  0.11673196  0.39083626     0.18000
N640        N  0.34543822  0.10331056  0.42962140    -0.81200
H641        H  0.37308132  0.48021140  0.37223807     0.33600
H642        H  0.38085107  0.00106193  0.35624800     0.38100
H643        H  0.36708058  0.11954065  0.43360729     0.33600
H644        H  0.32633516  0.11931777  0.42215013     0.30300
H645        H  0.25179418  0.04054566  0.43125837     0.33600
H646        H  0.28298367  0.07078796  0.42541701     0.30300
H647        H  0.36294598  0.45995198  0.49120428     0.38200
H648        H  0.39450999  0.49087247  0.48704676     0.33600
C649        C  0.11977423  0.29746986  0.16158870    -0.20100
C650        C  0.08391703  0.30063262  0.15483490     0.36100
C651        C  0.07410678  0.28845089  0.13420131    -0.26100
C652        C  0.09911294  0.27295793  0.12018192     0.02500
C653        C  0.13464397  0.26940099  0.12697153     0.27400
C654        C  0.14459615  0.28134341  0.14757748    -0.25200
N655        N  0.05747600  0.31585989  0.16891868    -0.82600
H656        H  0.04669752  0.29094387  0.12898894     0.13200
C657        C  0.08753652  0.26194210  0.09823904     0.02500
N658        N  0.16095084  0.25475286  0.11271868    -0.81200
H659        H  0.17220884  0.27883220  0.15236151     0.18000
C660        C  0.07258656  0.28764654  0.08454355    -0.26000
C661        C  0.05902951  0.27831972  0.06417984     0.36000
C662        C  0.06012697  0.24239178  0.05748960    -0.20000
C663        C  0.07622690  0.21689881  0.07085930    -0.25300
C664        C  0.08977831  0.22622029  0.09122298     0.27400
H665        H  0.07121563  0.31510414  0.08990755     0.13200
N666        N  0.04387572  0.30509282  0.05040212    -0.82600
H667        H  0.07765071  0.18945831  0.06548512     0.18000
N668        N  0.10531562  0.19950776  0.10487144    -0.81200
H669        H  0.04545101  0.33020320  0.05767287     0.33600
H670        H  0.01682023  0.29943500  0.04857793     0.38100
H671        H  0.08973615  0.19770558  0.11883765     0.33600
H672        H  0.10444518  0.17453308  0.09742091     0.30300
H673        H  0.18082680  0.27391253  0.11041258     0.33600
H674        H  0.17248246  0.23278700  0.12033355     0.30300
H675        H  0.05466813  0.29884061  0.18217372     0.38200
H676        H  0.03266616  0.31672880  0.16133857     0.33600
C677        C  0.45398259  0.13432418  0.16280871    -0.20100
C678        C  0.45230351  0.11092698  0.14503608     0.36100
C679        C  0.46410510  0.12253808  0.12472504    -0.26100
C680        C  0.47764302  0.15702820  0.12182780     0.02500
C681        C  0.47937958  0.18049530  0.13965677     0.27400
C682        C  0.46704923  0.16901031  0.15998577    -0.25200
N683        N  0.43788583  0.07568845  0.14763807    -0.82600
H684        H  0.46224824  0.10478226  0.11096987     0.13200
C685        C  0.48897923  0.16826906  0.09986427     0.02500
N686        N  0.49405807  0.21561073  0.13706634    -0.81200
H687        H  0.46827375  0.18683683  0.17374007     0.18000
C688        C  0.47268396  0.19793228  0.09028205    -0.26000
C689        C  0.48222859  0.20898438  0.06938503     0.36000
C690        C  0.50862066  0.19006680  0.05795218    -0.20000
C691        C  0.00679046  0.15528541  0.06277909    -0.25300
C692        C  0.99628722  0.14207205  0.08303601     0.27400
H693        H  0.45228069  0.21231965  0.09910298     0.13200
N694        N  0.46544312  0.23941779  0.05972368    -0.82600
H695        H  0.02052480  0.13804285  0.05144875     0.18000
N696        N  0.00151226  0.10516817  0.08836346    -0.81200
H697        H  0.44672325  0.25051063  0.07029476     0.33600
H698        H  0.45131414  0.23045184  0.04624854     0.38100
H699        H  0.01313463  0.09159476  0.07539252     0.33600
H700        H  0.01966035  0.10378008  0.10107472     0.30300
H701        H  0.49348439  0.22947119  0.15171461     0.33600
H702        H  0.52087893  0.21267835  0.13284542     0.30300
H703        H  0.41103069  0.07834753  0.15183943     0.38200
H704        H  0.43859508  0.06178420  0.13300285     0.33600
C705        C  0.18284954  0.36718274  0.38076242    -0.20100
C706        C  0.19888120  0.40112609  0.38191017     0.36100
C707        C  0.21093656  0.41403688  0.40184369    -0.26100
C708        C  0.20729516  0.39379130  0.42065955     0.02500
C709        C  0.19077880  0.36002271  0.41970893     0.27400
C710        C  0.17896321  0.34679715  0.39960929    -0.25200
N711        N  0.20324241  0.42219255  0.36270623    -0.82600
H712        H  0.22354492  0.43997413  0.40273940     0.13200
C713        C  0.22155904  0.40879217  0.44101077     0.02500
N714        N  0.18583070  0.33960558  0.43909816    -0.81200
H715        H  0.16651377  0.32079718  0.39864190     0.18000
C716        C  0.19912950  0.42898382  0.45435141    -0.26000
C717        C  0.21265167  0.44705373  0.47246140     0.36000
C718        C  0.24923199  0.44443056  0.47745955    -0.20000
C719        C  0.27169513  0.42424466  0.46405106    -0.25300
C720        C  0.25817551  0.40647127  0.44579292     0.27400
H721        H  0.17118209  0.43132770  0.45028962     0.13200
N722        N  0.18955259  0.46850180  0.48569541    -0.82600
H723        H  0.29971077  0.42210656  0.46797744     0.18000
N724        N  0.28146316  0.38649853  0.43186086    -0.81200
H725        H  0.16346314  0.46770964  0.47986011     0.33600
H726        H  0.19808422  0.49492339  0.48437612     0.38100
H727        H  0.30767334  0.38775928  0.43743533     0.33600
H728        H  0.27376536  0.35975685  0.43269915     0.30300
H729        H  0.17285821  0.31560726  0.43565921     0.33600
H730        H  0.21101703  0.33294149  0.44497261     0.30300
H731        H  0.22090266  0.40864488  0.35250383     0.38200
H732        H  0.21515949  0.44662517  0.36634075     0.33600
C733        C  0.30260536  0.44921661  0.06093160    -0.20100
C734        C  0.28041985  0.43661050  0.07775858     0.36100
C735        C  0.29594309  0.42302836  0.09672352    -0.26100
C736        C  0.33303233  0.42037277  0.09879002     0.02500
C737        C  0.35519506  0.43177516  0.08177229     0.27400
C738        C  0.33978775  0.44661080  0.06321784    -0.25200
N739        N  0.24238931  0.43660965  0.07530819    -0.82600
H740        H  0.27909714  0.41363088  0.10976154     0.13200
C741        C  0.34838073  0.40463901  0.11861889     0.02500
N742        N  0.39312704  0.42688191  0.08302294    -0.81200
H743        H  0.35690563  0.45573900  0.05023381     0.18000
C744        C  0.35074516  0.36745829  0.12052632    -0.26000
C745        C  0.36542824  0.35156584  0.13908469     0.36000
C746        C  0.37831365  0.37341868  0.15589121    -0.20000
C747        C  0.37589108  0.41066843  0.15385286    -0.25300
C748        C  0.36059720  0.42649075  0.13554013     0.27400
H749        H  0.34111150  0.35085762  0.10746542     0.13200
N750        N  0.36758270  0.31345872  0.14083769    -0.82600
H751        H  0.38500860  0.42752798  0.16692990     0.18000
N752        N  0.35611892  0.46451570  0.13444388    -0.81200
H753        H  0.39455170  0.30658679  0.14117758     0.33600
H754        H  0.35679419  0.30128600  0.12714464     0.38100
H755        H  0.36551373  0.47663516  0.14852476     0.33600
H756        H  0.37187074  0.47416469  0.12182170     0.30300
H757        H  0.40547685  0.43554585  0.06880889     0.33600
H758        H  0.40283326  0.44304233  0.09539804     0.30300
H759        H  0.23616805  0.41923885  0.06266601     0.38200
H760        H  0.22998918  0.42656929  0.08915784     0.33600
C761        C  0.00430410  0.24614756  0.47813892    -0.20100
C762        C  0.47699529  0.24847519  0.47241666     0.36100
C763        C  0.46669194  0.25938372  0.45171440    -0.26100
C764        C  0.49151062  0.27399309  0.43725754     0.02500
C765        C  0.01809921  0.27124619  0.44288123     0.27400
C766        C  0.02857059  0.26164024  0.46366272    -0.25200
N767        N  0.45158170  0.23235635  0.48682203    -0.82600
H768        H  0.43929941  0.25599201  0.44665467     0.13200
C769        C  0.47936872  0.28366896  0.41535316     0.02500
N770        N  0.04458870  0.28444184  0.42823074    -0.81200
H771        H  0.05614508  0.26512857  0.46833348     0.18000
C772        C  0.47909829  0.31951226  0.40919221    -0.26000
C773        C  0.46607164  0.32987335  0.38893849     0.36000
C774        C  0.45289031  0.30364723  0.37455049    -0.20000
C775        C  0.45261873  0.26780892  0.38097433    -0.25300
C776        C  0.46588494  0.25765657  0.40117824     0.27400
H777        H  0.48827154  0.33958582  0.42046214     0.13200
N778        N  0.46537576  0.36698812  0.38322032    -0.82600
H779        H  0.44263540  0.24746622  0.37013719     0.18000
N780        N  0.46592388  0.22084483  0.40722164    -0.81200
H781        H  0.47649032  0.38259317  0.39546979     0.33600
H782        H  0.43868504  0.37459655  0.38197629     0.38100
H783        H  0.43965160  0.21165465  0.40684216     0.33600
H784        H  0.48043218  0.20674151  0.39558939     0.30300
H785        H  0.03777511  0.31028678  0.42360480     0.33600
H786        H  0.04474730  0.26819827  0.41451125     0.30300
H787        H  0.45947937  0.20599210  0.48942733     0.38200
H788        H  0.42646783  0.23119911  0.47964790     0.33600
C789        C  0.43300429  0.81375206  0.35323608     0.80000
N790        N  0.44919747  0.84077743  0.34247054    -0.78300
C791        C  0.43889387  0.84944455  0.32220880     0.82400
N792        N  0.41213433  0.83113371  0.31264688    -0.78300
C793        C  0.39614662  0.80373940  0.32313604     0.82500
N794        N  0.40667126  0.79497015  0.34339526    -0.80000
C795        C  0.39595638  0.84849877  0.17531337     0.80000
N796        N  0.42247952  0.86695096  0.18529880    -0.78300
C797        C  0.43075220  0.86016330  0.20622224     0.82400
N798        N  0.41181975  0.83555217  0.21737478    -0.78300
C799        C  0.38627165  0.81608372  0.20745516     0.82500
N800        N  0.37810058  0.82287370  0.18653675    -0.80000
C801        C  0.17095618  0.85881788  0.35840894     0.80000
N802        N  0.14498477  0.87629505  0.34742093    -0.78300
C803        C  0.13838736  0.86839813  0.32643729     0.82400
N804        N  0.15831456  0.84335405  0.31624703    -0.78300
C805        C  0.18315903  0.82453101  0.32727830     0.82500
N806        N  0.18966551  0.83244925  0.34835556    -0.80000
C807        C  0.43260344  0.61674280  0.18195306     0.80000
N808        N  0.40404879  0.63244807  0.19135255    -0.78300
C809        C  0.39225945  0.62122716  0.21094384     0.82400
N810        N  0.40928701  0.59402779  0.22115732    -0.78300
C811        C  0.43829663  0.57864187  0.21173102     0.82500
N812        N  0.44969444  0.59004366  0.19217083    -0.80000
C813        C  0.45606114  0.87897673  0.31093432     0.42200
N814        N  0.99126618  0.92583142  0.30385389     0.01100
C815        C  0.99160634  0.52998296  0.21411439    -0.06800
H816        H  0.00406641  0.89930940  0.19539163     0.06600
C817        C  0.12224747  0.90416382  0.24012326    -0.07100
Co818      Co  0.46770806  0.96261843  0.26472193     0.74200
N819        N  0.99590361  0.92870167  0.22506758    -0.26300
Co820      Co  0.03527057  0.96795109  0.22616251     0.74100
C821        C  0.11087356  0.88722270  0.22013787     0.42300
N822        N  0.09574995  0.92935433  0.29149426     0.00700
N823        N  0.07529690  0.92987537  0.22743549     0.00800
N824        N  0.44652717  0.53096523  0.23941787    -0.47100
H825        H  0.42172967  0.89005354  0.28098600     0.06600
N826        N  0.47024248  0.92415242  0.24051640     0.01100
N827        N  0.07521557  0.50300143  0.22911582     0.00900
C828        C  0.11033684  0.54619877  0.22144486     0.42500
N829        N  0.07071009  0.92914664  0.30648707    -0.25800
C830        C  0.44182535  0.52842272  0.29301082    -0.06700
N831        N  0.98657553  0.89951053  0.31778141    -0.46900
N832        N  0.08228564  0.52724970  0.21413319    -0.47100
C833        C  0.45055500  0.54396899  0.31376811     0.42200
N834        N  0.47034831  0.50534685  0.24222007     0.01100
N835        N  0.06894772  0.50234166  0.30861575    -0.25800
N836        N  0.46708214  0.92323271  0.28839615    -0.26300
N837        N  0.09443797  0.50390599  0.29389657     0.00700
H838        H  0.05776475  0.53307472  0.33736084     0.06600
H839        H  0.14336945  0.53731185  0.25216717     0.06700
N840        N  0.99628251  0.50282056  0.22773316    -0.26300
N841        N  0.09863415  0.93030748  0.24335447    -0.25900
N842        N  0.98985623  0.50111012  0.30659501     0.01100
C843        C  0.45500491  0.88362566  0.21801177     0.42500
C844        C  0.07954415  0.90524635  0.32166250    -0.07200
N845        N  0.09777639  0.50415266  0.24540066    -0.25900
H846        H  0.14485528  0.89824579  0.25027971     0.06700
N847        N  0.44557305  0.89988924  0.23655856    -0.47100
H848        H  0.06521689  0.90052450  0.33656236     0.06600
C849        C  0.10598362  0.54656224  0.31587299     0.42300
C850        C  0.44427584  0.89616502  0.29116344    -0.06700
Co851      Co  0.02922000  0.96604092  0.30590736     0.73800
N852        N  0.12167562  0.90643328  0.29551199    -0.46900
C853        C  0.45765643  0.54958906  0.22208778     0.42600
N854        N  0.98248142  0.52545651  0.32149621    -0.46900
Co855      Co  0.09673885  0.96861943  0.26777665     0.73900
C856        C  0.12074794  0.53095067  0.24210963    -0.07200
C857        C  0.98906572  0.90368681  0.21008970    -0.06700
N858        N  0.46666943  0.50352708  0.28977973    -0.26300
N859        N  0.08165524  0.90443696  0.21308068    -0.47000
H860        H  0.00827969  0.53622399  0.20035787     0.06600
C861        C  0.07407502  0.52817951  0.32324354    -0.07200
Cl862      Cl  0.03219448  0.96693864  0.26605644    -0.50200
C863        C  0.11303640  0.88985596  0.31409406     0.42400
H864        H  0.41886107  0.53299417  0.28289159     0.06600
N865        N  0.11725358  0.53015205  0.29763764    -0.46900
C866        C  0.13069679  0.81440601  0.18144627     0.80000
N867        N  0.11517792  0.84351808  0.19065792    -0.78300
C868        C  0.12762920  0.85659355  0.20965415     0.82400
N869        N  0.15578433  0.84086669  0.21931586    -0.78300
C870        C  0.17144212  0.81203311  0.21028501     0.82500
N871        N  0.15891035  0.79880225  0.19136701    -0.80000
C872        C  0.39465966  0.57968270  0.35817029     0.80000
N873        N  0.37450084  0.60385875  0.34729751    -0.78300
C874        C  0.37986352  0.60925844  0.32583539     0.82400
N875        N  0.40513308  0.59012623  0.31528156    -0.78300
C876        C  0.42638678  0.56707842  0.32612197     0.82500
N877        N  0.42072472  0.56147405  0.34750374    -0.80000
C878        C  0.12899939  0.61850297  0.35465858     0.80000
N879        N  0.15467584  0.63605233  0.34333099    -0.78300
C880        C  0.16484166  0.62433949  0.32349521     0.82400
N881        N  0.14919104  0.59507904  0.31486527    -0.78300
C882        C  0.12323976  0.57762545  0.32580608     0.82500
N883        N  0.11317622  0.58935031  0.34570802    -0.80000
C884        C  0.15895222  0.58765458  0.17580173     0.80000
N885        N  0.17654633  0.61431396  0.18613248    -0.78300
C886        C  0.17187239  0.61947740  0.20763925     0.82400
N887        N  0.14996865  0.59751608  0.21891185    -0.78300
C888        C  0.13130056  0.57164675  0.20867620     0.82500
N889        N  0.13627172  0.56638431  0.18717949    -0.80000
C890        C  0.36338678  0.79297251  0.22049832     0.42200
N891        N  0.32094946  0.75705083  0.22830012     0.01100
C892        C  0.22013086  0.76511008  0.32295900    -0.06800
H893        H  0.35289213  0.73716372  0.33464376     0.06600
C894        C  0.33972146  0.62242612  0.29257830    -0.07100
Co895      Co  0.28313890  0.78020108  0.26850525     0.74200
N896        N  0.32039186  0.74977636  0.30696447    -0.26300
Co897      Co  0.27932259  0.71267923  0.30659961     0.74100
C898        C  0.35533658  0.63161649  0.31334430     0.42300
N899        N  0.31697539  0.65171854  0.24106249     0.00700
N900        N  0.31555203  0.67033966  0.30542638     0.00800
N901        N  0.22215595  0.80695510  0.29674802    -0.47100
H902        H  0.35401065  0.82601547  0.25120844     0.06600
N903        N  0.32189875  0.77540423  0.29239034     0.01100
N904        N  0.23818942  0.67556796  0.30460760     0.00900
C905        C  0.19338329  0.64231572  0.31157506     0.42500
N906        N  0.31791882  0.67760313  0.22664382    -0.25800
C907        C  0.21867541  0.80687099  0.24106936    -0.06700
N908        N  0.34470191  0.76473737  0.21309596    -0.42900
N909        N  0.21225213  0.67046903  0.31883546    -0.47100
C910        C  0.20158189  0.79533788  0.22113082     0.42200
N911        N  0.24424416  0.78032629  0.29256243     0.01100
N912        N  0.24057597  0.68038091  0.22601108    -0.25800
N913        N  0.32196605  0.77966927  0.24459896    -0.26300
N914        N  0.23874768  0.65542468  0.24093609     0.00700
H915        H  0.21031296  0.68982607  0.19691036     0.06600
H916        H  0.20346723  0.60740082  0.28162043     0.06700
N917        N  0.24351012  0.75536286  0.30755388    -0.26300
N918        N  0.31515093  0.64763540  0.28914098    -0.25900
N919        N  0.24380121  0.75942958  0.22841041     0.01100
C920        C  0.36650562  0.78505674  0.31291481     0.42500
C921        C  0.34503578  0.67186071  0.21304270    -0.07200
N922        N  0.23769754  0.65207511  0.28870221    -0.25900
H923        H  0.34432081  0.59929793  0.28251613     0.06700
N924        N  0.34912741  0.79719021  0.29540227    -0.47100
H925        H  0.35226856  0.68852090  0.19948466     0.06600
C926        C  0.19588183  0.64312165  0.21944430     0.42300
C927        C  0.34830299  0.80301375  0.24126588    -0.06700
Co928      Co  0.28083532  0.71860341  0.22687401     0.73800
N929        N  0.34275291  0.62797402  0.23812040    -0.46900
C930        C  0.20574469  0.79909359  0.31552860     0.42600
N931        N  0.21849379  0.76589448  0.21412716    -0.46900
Co932      Co  0.27716956  0.65100053  0.26488620     0.73900
C933        C  0.21009154  0.63002162  0.29167034    -0.07200
C934        C  0.34755428  0.75373299  0.32075434    -0.06700
N935        N  0.24457556  0.78294339  0.24429497    -0.26300
N936        N  0.33876726  0.66127786  0.32057436    -0.47000
H937        H  0.21507686  0.75099044  0.33786543     0.06600
C938        C  0.21474804  0.67454389  0.21145110    -0.07200
Cl939      Cl  0.28007945  0.71563738  0.26673683    -0.50200
C940        C  0.36144685  0.63915852  0.22072555     0.42400
H941        H  0.21298875  0.82969241  0.25118433     0.06600
N942        N  0.21254923  0.63259144  0.23755893    -0.46900
C943        C  0.26455225  0.96068765  0.49786695     0.02100
C944        C  0.29322937  0.98538722  0.49798820     0.02000
C945        C  0.30640825  0.99773866  0.51787892    -0.18500
C946        C  0.29174592  0.98613862  0.53751208     0.02100
C947        C  0.26277378  0.96209106  0.53730405     0.02000
C948        C  0.24986998  0.94940791  0.51758598    -0.18500
H949        H  0.22826142  0.93024751  0.51763977     0.04100
H950        H  0.32278843  0.52140703  0.51752729     0.04100
C951        C  0.01358993  0.70335205  0.03571825     0.02100
C952        C  0.03844630  0.73162888  0.03690721     0.02000
C953        C  0.05148380  0.74695381  0.01787683    -0.18500
C954        C  0.03987293  0.73530519  0.99753683     0.02100
C955        C  0.01429842  0.70755899  0.99637868     0.02000
C956        C  0.50668113  0.68542478  0.01819997    -0.18500
H957        H  0.48616916  0.66507865  0.01867841     0.04100
H958        H  0.07088105  0.76828985  0.01893602     0.04100
C959        C  0.04552898  0.71261748  0.49947646     0.02100
C960        C  0.01923555  0.73942066  0.50031648     0.02000
C961        C  0.00586306  0.75060231  0.52034145    -0.18500
C962        C  0.01763138  0.73520846  0.53974170     0.02100
C963        C  0.04410194  0.70815775  0.53887272     0.02000
C964        C  0.05763303  0.69737074  0.51870223    -0.18500
H965        H  0.07753734  0.67648107  0.51790822     0.04100
H966        H  0.49154555  0.77015673  0.51873924     0.04100
C967        C  0.26907912  0.98436185  0.03908070     0.02100
C968        C  0.29328634  0.95547244  0.03935369     0.02000
C969        C  0.30540824  0.94111318  0.01970458    -0.18500
C970        C  0.29345969  0.95457359  0.99991969     0.02100
C971        C  0.26853454  0.98273165  0.99976975     0.02000
C972        C  0.25684317  0.99746775  0.01927165    -0.18500
H973        H  0.23233808  0.52337229  0.01651597     0.04100
H974        H  0.32397209  0.91900837  0.01983343     0.04100
C975        C  0.37357567  0.87298678  0.85322357     0.80000
N976        N  0.35797476  0.84537470  0.84271696    -0.78300
C977        C  0.37019366  0.83497265  0.82305721     0.82400
N978        N  0.39841288  0.85188113  0.81400077    -0.78300
C979        C  0.41391790  0.87960026  0.82440580     0.82500
N980        N  0.40134196  0.89026133  0.84391295    -0.80000
C981        C  0.40905949  0.60696930  0.86069667     0.80000
N982        N  0.38421451  0.62617130  0.84969217    -0.78300
C983        C  0.37834657  0.61968127  0.82842037     0.82400
N984        N  0.39824720  0.59491374  0.81803407    -0.78300
C985        C  0.42246660  0.57508139  0.82882951     0.82500
N986        N  0.42808457  0.58130420  0.85016899    -0.80000
C987        C  0.17759615  0.57075276  0.85407105     0.80000
N988        N  0.19363356  0.59950937  0.84492971    -0.78300
C989        C  0.18244528  0.61206259  0.82553934     0.82400
N990        N  0.15482598  0.59604596  0.81535936    -0.78300
C991        C  0.13868925  0.56731380  0.82436846     0.82500
N992        N  0.15013397  0.55468132  0.84367156    -0.80000
C993        C  0.14389627  0.83687777  0.86087456     0.80000
N994        N  0.12470774  0.86294510  0.85098233    -0.78300
C995        C  0.13062886  0.87065617  0.82981852     0.82400
N996        N  0.15525635  0.85180277  0.81850723    -0.78300
C997        C  0.17544619  0.82687574  0.82848951     0.82500
N998        N  0.16935489  0.81912606  0.84953721    -0.80000
C999        C  0.14109666  0.60834339  0.67741640     0.80000
N1000       N  0.16559364  0.62740152  0.68872802    -0.78300
C1001       C  0.17031702  0.62144759  0.71011605     0.82400
N1002       N  0.14989538  0.59698769  0.72039111    -0.78300
C1003       C  0.12633600  0.57696037  0.70915188     0.82500
N1004       N  0.12169269  0.58287356  0.68773129    -0.80000
C1005       C  0.37380362  0.56697244  0.68244755     0.80000
N1006       N  0.40168971  0.55137185  0.69252006    -0.78300
C1007       C  0.41208172  0.56262586  0.71232108     0.82400
N1008       N  0.39477234  0.59017593  0.72200824    -0.78300
C1009       C  0.36666354  0.60588970  0.71200255     0.82500
N1010       N  0.35618318  0.59411344  0.69228034    -0.80000
C1011       C  0.35341728  0.80509753  0.81195888     0.42200
N1012       N  0.31883404  0.76131916  0.80562361     0.01100
C1013       C  0.31611303  0.65394635  0.71438610    -0.06800
H1014       H  0.31096596  0.78659938  0.69656743     0.06600
C1015       C  0.19151061  0.79200089  0.74321896    -0.07100
Co1016     Co  0.34070319  0.72032529  0.76625829     0.74200
N1017       N  0.31555764  0.75821906  0.72682170    -0.26300
Co1018     Co  0.27352640  0.72184767  0.72812692     0.74100
C1019       C  0.20441527  0.80920878  0.72362361     0.42300
N1020       N  0.21471398  0.76374092  0.79360772     0.00700
N1021       N  0.23595205  0.76281742  0.72973709     0.00800
N1022       N  0.35951353  0.65374390  0.73972691    -0.47100
H1023       H  0.38811382  0.79292753  0.78212346     0.06600
N1024       N  0.34021961  0.75822609  0.74193449     0.01100
N1025       N  0.23182184  0.68513677  0.72991269     0.00900
C1026       C  0.19363132  0.64458814  0.72270436     0.42500
N1027       N  0.23969612  0.76267827  0.80849784    -0.25800
C1028       C  0.36492046  0.65716560  0.79445959    -0.06700
N1029       N  0.32454005  0.78767055  0.81936057    -0.46900
N1030       N  0.22294480  0.66126210  0.71508600    -0.47100
C1031       C  0.35548509  0.64311472  0.81556554     0.42200
N1032       N  0.33694589  0.68044540  0.74273166     0.01100
N1033       N  0.23878275  0.68566319  0.80870243    -0.25800
N1034       N  0.34241569  0.76023521  0.78976718    -0.26300
N1035       N  0.21289440  0.68574889  0.79430602     0.00700
H1036       H  0.24968945  0.65314131  0.83660983     0.06600
H1037       H  0.16124903  0.65647833  0.75339625     0.06700
N1038       N  0.31136744  0.68117485  0.72812762    -0.26300
N1039       N  0.21255637  0.76355373  0.74573228    -0.25900
N1040       N  0.31837104  0.68407028  0.80709669     0.01100
C1041       C  0.35830402  0.79730295  0.71930892     0.42500
C1042       C  0.23243025  0.78752515  0.82347340    -0.07200
N1043       N  0.20918632  0.68587206  0.74624286    -0.25900
H1044       H  0.16969826  0.79952635  0.75371453     0.06700
N1045       N  0.36622235  0.78107156  0.73802790    -0.47100
H1046       H  0.24705903  0.79176295  0.83826754     0.06600
C1047       C  0.20042940  0.64256709  0.81558625     0.42300
C1048       C  0.36547644  0.78715557  0.79237496    -0.06700
Co1049     Co  0.27898561  0.72341912  0.80790282     0.73800
N1050       N  0.19031546  0.78836694  0.79750072    -0.46900
C1051       C  0.34793090  0.63583720  0.72220510     0.42600
N1052       N  0.32672315  0.66135762  0.82271220    -0.46900
Co1053     Co  0.21160799  0.72468320  0.76995679     0.73900
C1054       C  0.18434066  0.66083978  0.74325298    -0.07200
C1055       C  0.32499199  0.78181877  0.71150840    -0.06700
N1056       N  0.34089635  0.68266520  0.79073162    -0.26300
N1057       N  0.23190311  0.78963879  0.71599054    -0.47000
H1058       H  0.29985953  0.64814851  0.70043005     0.06600
C1059       C  0.23313908  0.65936598  0.82286506    -0.07200
Cl1060     Cl  0.27619372  0.72250143  0.76805099    -0.50200
C1061       C  0.20001228  0.80487553  0.81587986     0.42400
H1062       H  0.38796809  0.65147247  0.78452262     0.06600
N1063       N  0.18922089  0.66016099  0.79783205    -0.46900
C1064       C  0.42136063  0.82894698  0.67763697     0.80000
N1065       N  0.43877210  0.85509977  0.68865248    -0.78300
C1066       C  0.42923021  0.86303167  0.70931377     0.82400
N1067       N  0.40266653  0.84441146  0.71896817    -0.78300
C1068       C  0.38405362  0.81958634  0.70779657     0.82500
N1069       N  0.39374250  0.81153926  0.68724712    -0.80000
C1070       C  0.18330673  0.88086506  0.68424933     0.80000
N1071       N  0.15512165  0.89664711  0.69429475    -0.78300
C1072       C  0.14403234  0.88487762  0.71391217     0.82400
N1073       N  0.16072781  0.85690279  0.72322059    -0.78300
C1074       C  0.18859438  0.84070315  0.71332458     0.82500
N1075       N  0.20000473  0.85273612  0.69377208    -0.80000
C1076       C  0.45099216  0.88717882  0.72245987     0.42200
N1077       N  0.48972447  0.92676375  0.73085087     0.01100
C1078       C  0.08998152  0.92770654  0.82598218    -0.06800
H1079       H  0.45518444  0.94601656  0.83670127     0.06600
C1080       C  0.46144240  0.56176787  0.79536353    -0.07100
Co1081     Co  0.02886902  0.90847789  0.77148497     0.74200
N1082       N  0.48949143  0.93425800  0.80961564    -0.26300
Co1083     Co  0.02702402  0.97563776  0.81001926     0.74100
C1084       C  0.44662039  0.55229005  0.81628587     0.42300
N1085       N  0.48556026  0.53349355  0.74388288     0.00700
N1086       N  0.48805525  0.51533089  0.80820234     0.00800
N1087       N  0.09141411  0.88641314  0.79940056    -0.47100
H1088       H  0.46237742  0.85473833  0.75309713     0.06600
N1089       N  0.48969794  0.90855098  0.79501986     0.01100
N1090       N  0.06494186  0.51563046  0.80700352     0.00900
C1091       C  0.10862760  0.55039760  0.81346194     0.42500
N1092       N  0.48615788  0.50746188  0.72949621    -0.25800
C1093       C  0.09628185  0.88804736  0.74457809    -0.06700
N1094       N  0.46721810  0.91714323  0.71541371    -0.46900
N1095       N  0.09113647  0.52147561  0.82081124    -0.47100
C1096       C  0.11320588  0.90087428  0.72485616     0.42200
N1097       N  0.06734221  0.91127598  0.79548452     0.01100
N1098       N  0.06251578  0.51131121  0.72826598    -0.25800
N1099       N  0.49029692  0.90395538  0.74703792    -0.26300
N1100       N  0.06269530  0.53631362  0.74325448     0.00700
H1101       H  0.09170304  0.50504867  0.69836305     0.06600
H1102       H  0.09668455  0.58494890  0.78366836     0.06700
N1103       N  0.06600426  0.93590653  0.81068285    -0.26300
N1104       N  0.48715830  0.53783523  0.79185955    -0.25900
N1105       N  0.06737514  0.93290173  0.73155342     0.01100
C1106       C  0.44474896  0.89737269  0.81501879     0.42500
C1107       C  0.45941125  0.51217697  0.71558201    -0.07200
N1108       N  0.06407928  0.53915247  0.79116497    -0.25900
H1109       H  0.45585825  0.58465557  0.78533631     0.06700
N1110       N  0.46316913  0.88572481  0.79767625    -0.47100
H1111       H  0.45380501  0.49565658  0.70168231     0.06600
C1112       C  0.10273448  0.55273339  0.72079440     0.42300
C1113       C  0.46627075  0.87831186  0.74334135    -0.06700
Co1114     Co  0.02654796  0.97046641  0.73015351     0.73800
N1115       N  0.45927813  0.55641398  0.74054726    -0.46900
C1116       C  0.10708520  0.89513748  0.81820015     0.42600
N1117       N  0.09385043  0.92863226  0.71755187    -0.46900
Co1118     Co  0.02454818  0.53745528  0.76753210     0.73900
C1119       C  0.09085895  0.56232155  0.79387951    -0.07200
C1120       C  0.46206853  0.92929932  0.82308302    -0.06700
N1121       N  0.06810167  0.90940778  0.74742338    -0.26300
N1122       N  0.46473642  0.52362416  0.82359070    -0.47000
H1123       H  0.09377703  0.94183170  0.84102868     0.06600
C1124       C  0.08674705  0.51967624  0.71312057    -0.07200
Cl1125     Cl  0.02684613  0.97313369  0.77008401    -0.50200
C1126       C  0.44171214  0.54448538  0.72299309     0.42400
H1127       H  0.10359290  0.86592288  0.75481359     0.06600
N1128       N  0.08631084  0.56165456  0.73937278    -0.46900
C1129       C  0.25339605  0.99643495  0.97940498    -0.20100
C1130       C  0.27296826  0.01941985  0.96599059     0.36100
C1131       C  0.25924661  0.53060463  0.94415018    -0.26100
C1132       C  0.22417018  0.52265000  0.93807400     0.02500
C1133       C  0.20220877  0.50302366  0.95234150     0.27400
C1134       C  0.21590202  0.49135013  0.97209614    -0.25200
N1135       N  0.30750430  0.03155995  0.97238323    -0.82600
H1136       H  0.27619083  0.54588874  0.93340742     0.13200
C1137       C  0.21114320  0.53522606  0.91683753     0.02500
N1138       N  0.16568486  0.49555058  0.94749098    -0.81200
H1139       H  0.19897520  0.47624564  0.98294170     0.18000
C1140       C  0.20290822  0.51022161  0.90077889    -0.26000
C1141       C  0.19159290  0.52109871  0.88020778     0.36000
C1142       C  0.18928782  0.55784226  0.87548539    -0.20000
C1143       C  0.19801834  0.58284009  0.89150883    -0.25300
C1144       C  0.20843862  0.57190176  0.91224204     0.27400
H1145       H  0.20999361  0.97973099  0.90483029     0.13200
N1146       N  0.18317391  0.49498565  0.86400918    -0.82600
H1147       H  0.19596208  0.61102926  0.88796505     0.18000
N1148       N  0.21614559  0.59779744  0.92869952    -0.81200
H1149       H  0.19350987  0.96804067  0.86988915     0.33600
H1150       H  0.20195182  0.49747192  0.85160198     0.38100
H1151       H  0.21296020  0.62364792  0.92269987     0.33600
H1152       H  0.19725973  0.59467094  0.94097461     0.30300
H1153       H  0.16453715  0.47981803  0.93358679     0.33600
H1154       H  0.15269603  0.51963246  0.94446672     0.30300
H1155       H  0.30692358  0.05937870  0.97307292     0.38200
H1156       H  0.32570383  0.02413207  0.96038429     0.33600
C1157       C  0.30632929  0.93852211  0.97946816    -0.20100
C1158       C  0.34185182  0.94302376  0.97237199     0.36100
C1159       C  0.35163538  0.93157639  0.95172051    -0.26100
C1160       C  0.32672437  0.91555986  0.93800133     0.02500
C1161       C  0.29153029  0.91005365  0.94516882     0.27400
C1162       C  0.28179796  0.92116679  0.96601072    -0.25200
N1163       N  0.36822464  0.95998287  0.98551377    -0.82600
H1164       H  0.37877280  0.93554350  0.94620946     0.13200
C1165       C  0.33793148  0.90499247  0.91607369     0.02500
N1166       N  0.26574667  0.89400027  0.93107340    -0.81200
H1167       H  0.25467721  0.91736872  0.97156452     0.18000
C1168       C  0.34259844  0.86879952  0.91135738    -0.26000
C1169       C  0.35448946  0.85792767  0.89093137     0.36000
C1170       C  0.36117988  0.88359577  0.87485944    -0.20000
C1171       C  0.35683522  0.91988285  0.87965909    -0.25300
C1172       C  0.34503533  0.93085851  0.90015984     0.27400
H1173       H  0.33770610  0.84899384  0.92373499     0.13200
N1174       N  0.36122879  0.82096703  0.88683962    -0.82600
H1175       H  0.36227188  0.93960851  0.86732045     0.18000
N1176       N  0.34028613  0.96805640  0.90493857    -0.81200
H1177       H  0.38012928  0.81214123  0.89797853     0.33600
H1178       H  0.33762314  0.80688143  0.88956726     0.38100
H1179       H  0.34687847  0.98361361  0.89155755     0.33600
H1180       H  0.31314082  0.97224471  0.90795464     0.30300
H1181       H  0.24106625  0.89185712  0.93885350     0.33600
H1182       H  0.26203041  0.91123804  0.91803741     0.30300
H1183       H  0.36850437  0.44911694  0.00260607     0.38200
H1184       H  0.35590707  0.48893785  0.99226249     0.33600
C1185       C  0.13125823  0.61963471  0.65528778    -0.20100
C1186       C  0.11598523  0.59586507  0.64027073     0.36100
C1187       C  0.10296209  0.60883748  0.62054001    -0.26100
C1188       C  0.10506443  0.64520839  0.61550920     0.02500
C1189       C  0.12083847  0.66896150  0.63030040     0.27400
C1190       C  0.13416839  0.65588510  0.64988226    -0.25200
N1191       N  0.11389888  0.55855109  0.64490991    -0.82600
H1192       H  0.09104787  0.59048633  0.60913465     0.13200
C1193       C  0.08989517  0.65862289  0.59501335     0.02500
N1194       N  0.12234894  0.70644834  0.62559581    -0.81200
H1195       H  0.14539865  0.67447880  0.66138816     0.18000
C1196       C  0.05301718  0.65663034  0.59164412    -0.26000
C1197       C  0.03732623  0.67219396  0.57333663     0.36000
C1198       C  0.05897266  0.69078072  0.55844499    -0.20000
C1199       C  0.09600103  0.69166491  0.56154816    -0.25300
C1200       C  0.11171302  0.67541000  0.57953523     0.27400
H1201       H  0.03642831  0.64337094  0.60351482     0.13200
N1202       N  0.99965496  0.66912889  0.56979476    -0.82600
H1203       H  0.11269685  0.70530188  0.54988797     0.18000
N1204       N  0.14970711  0.67607748  0.58230349    -0.81200
H1205       H  0.48972680  0.65529733  0.58059239     0.33600
H1206       H  0.49874367  0.65317562  0.55406472     0.38100
H1207       H  0.15875784  0.64976644  0.58160866     0.33600
H1208       H  0.16194138  0.68960217  0.56952709     0.30300
H1209       H  0.13479031  0.72032885  0.63810794     0.33600
H1210       H  0.09615967  0.71584870  0.62488039     0.30300
H1211       H  0.08714281  0.55091544  0.64422998     0.38200
H1212       H  0.12768461  0.54480752  0.63280783     0.33600
C1213       C  0.00224457  0.74885305  0.56039797    -0.20100
C1214       C  0.47074548  0.75064873  0.56193535     0.36100
C1215       C  0.45789616  0.76546823  0.58129031    -0.26100
C1216       C  0.48130780  0.77692113  0.59741719     0.02500
C1217       C  0.01091594  0.77607835  0.59586706     0.27400
C1218       C  0.02484508  0.76169812  0.57667920    -0.25200
N1219       N  0.44620510  0.73803280  0.54586515    -0.82600
H1220       H  0.42945225  0.76770278  0.58398324     0.13200
C1221       C  0.46635868  0.79095414  0.61786581     0.02500
N1222       N  0.03449962  0.78743411  0.61264098    -0.81200
H1223       H  0.05345418  0.76077166  0.57445990     0.18000
C1224       C  0.45607988  0.76679561  0.63389923    -0.26000
C1225       C  0.44108313  0.77867159  0.65342720     0.36000
C1226       C  0.43598615  0.81560332  0.65688764    -0.20000
C1227       C  0.44645615  0.83980350  0.64080209    -0.25300
C1228       C  0.46124907  0.82777943  0.62116465     0.27400
H1229       H  0.46001840  0.73853890  0.63117314     0.13200
N1230       N  0.43183869  0.75338780  0.66995099    -0.82600
H1231       H  0.44263228  0.86807914  0.64347211     0.18000
N1232       N  0.47013435  0.85263791  0.60434854    -0.81200
H1233       H  0.43701036  0.72738424  0.66477311     0.33600
H1234       H  0.44852159  0.75806983  0.68314637     0.38100
H1235       H  0.46396377  0.87863227  0.60914838     0.33600
H1236       H  0.49767876  0.85187561  0.60201634     0.30300
H1237       H  0.05007503  0.76563086  0.61715307     0.33600
H1238       H  0.05143907  0.80692001  0.60627950     0.30300
H1239       H  0.44962606  0.71050643  0.54442077     0.38200
H1240       H  0.41989094  0.74214719  0.55085919     0.33600
C1241       C  0.05626748  0.75175446  0.97802632    -0.20100
C1242       C  0.03573297  0.76808740  0.96174648     0.36100
C1243       C  0.05281525  0.78169038  0.94329805    -0.26100
C1244       C  0.09000313  0.78079677  0.94126198     0.02500
C1245       C  0.11073846  0.76630004  0.95812665     0.27400
C1246       C  0.09355252  0.75144725  0.97606971    -0.25200
N1247       N  0.49862436  0.76373223  0.96802530    -0.82600
H1248       H  0.03711297  0.79337125  0.93047747     0.13200
C1249       C  0.10618713  0.79500978  0.92125999     0.02500
N1250       N  0.14904914  0.76610636  0.95765223    -0.81200
H1251       H  0.10953987  0.73945689  0.98865856     0.18000
C1252       C  0.10892161  0.83198402  0.91848511    -0.26000
C1253       C  0.12240721  0.84647847  0.89917397     0.36000
C1254       C  0.13301934  0.82340776  0.88235587    -0.20000
C1255       C  0.13103415  0.78634425  0.88545296    -0.25300
C1256       C  0.11756709  0.77189879  0.90471175     0.27400
H1257       H  0.10026657  0.84949982  0.93139025     0.13200
N1258       N  0.12545893  0.88439913  0.89659375    -0.82600
H1259       H  0.13884615  0.76855066  0.87248865     0.18000
N1260       N  0.11409333  0.73396343  0.90722942    -0.81200
H1261       H  0.11653338  0.89755800  0.91047801     0.33600
H1262       H  0.15253339  0.89041059  0.89500153     0.38100
H1263       H  0.12260798  0.72076075  0.89326733     0.33600
H1264       H  0.13126936  0.72604862  0.91956492     0.30300
H1265       H  0.15787050  0.78150689  0.97065353     0.33600
H1266       H  0.15907677  0.77825557  0.94376369     0.30300
H1267       H  0.49666777  0.77909144  0.98207483     0.38200
H1268       H  0.48569199  0.77792887  0.95584648     0.33600
C1269       C  0.42041718  0.61878993  0.88245569    -0.20100
C1270       C  0.42988441  0.59432276  0.89875034     0.36100
C1271       C  0.44460986  0.60702251  0.91819037    -0.26100
C1272       C  0.45030923  0.64356830  0.92147466     0.02500
C1273       C  0.44098729  0.66802378  0.90519683     0.27400
C1274       C  0.42548898  0.65541106  0.88604165    -0.25200
N1275       N  0.42464657  0.55678252  0.89544526    -0.82600
H1276       H  0.45209820  0.58840144  0.93073478     0.13200
C1277       C  0.46735924  0.65595784  0.94165347     0.02500
N1278       N  0.44941317  0.70523321  0.90758407    -0.81200
H1279       H  0.41906669  0.67416412  0.87335174     0.18000
C1280       C  0.50440918  0.65286398  0.94392045    -0.26000
C1281       C  0.02176706  0.67882950  0.95973690     0.36000
C1282       C  0.50169398  0.68359218  0.97847730    -0.20000
C1283       C  0.46447099  0.68539469  0.97650463    -0.25300
C1284       C  0.44700541  0.67109808  0.95846005     0.27400
H1285       H  0.02346705  0.65653299  0.92761162     0.13200
N1286       N  0.05884990  0.67266859  0.96399949    -0.82600
H1287       H  0.44898007  0.69788095  0.98921700     0.18000
N1288       N  0.40872348  0.67049498  0.95759254    -0.81200
H1289       H  0.07123198  0.66089295  0.95064395     0.33600
H1290       H  0.06042517  0.65428692  0.97663159     0.38100
H1291       H  0.39784152  0.68154616  0.97163144     0.33600
H1292       H  0.40043137  0.68662428  0.94485402     0.30300
H1293       H  0.44215927  0.71937829  0.89374148     0.33600
H1294       H  0.43413370  0.71562705  0.92018694     0.30300
H1295       H  0.39725709  0.55236458  0.89407815     0.38200
H1296       H  0.43315364  0.54240864  0.90892785     0.33600
C1297       C  0.30733414  0.99856016  0.55823302    -0.20100
C1298       C  0.30292648  0.53636690  0.56403994     0.36100
C1299       C  0.31732295  0.54616125  0.58406444    -0.26100
C1300       C  0.33328435  0.52070388  0.59745355     0.02500
C1301       C  0.32952646  0.98306642  0.59406851     0.27400
C1302       C  0.31945963  0.97315045  0.57312597    -0.25200
N1303       N  0.28469999  0.56214576  0.55095585    -0.82600
H1304       H  0.31508732  0.57346116  0.58962545     0.13200
C1305       C  0.34449615  0.53154663  0.61923242     0.02500
N1306       N  0.33732697  0.95629752  0.60996861    -0.81200
H1307       H  0.31955954  0.94525647  0.56866241     0.18000
C1308       C  0.31824943  0.53604972  0.63511716    -0.26000
C1309       C  0.32719927  0.54773440  0.65591748     0.36000
C1310       C  0.36316719  0.55461784  0.66084805    -0.20000
C1311       C  0.38948675  0.54978989  0.64495639    -0.25300
C1312       C  0.38040854  0.53893981  0.62397667     0.27400
H1313       H  0.29067401  0.53057892  0.63117530     0.13200
N1314       N  0.30003904  0.55225197  0.67209641    -0.82600
H1315       H  0.41704176  0.55555130  0.64877436     0.18000
N1316       N  0.40708529  0.53727319  0.60727939    -0.81200
H1317       H  0.27494549  0.54629263  0.66576782     0.33600
H1318       H  0.30482901  0.53366686  0.68430105     0.38100
H1319       H  0.43190661  0.54489075  0.61332741     0.33600
H1320       H  0.40973172  0.51081811  0.60234460     0.30300
H1321       H  0.33414092  0.93081532  0.60345417     0.33600
H1322       H  0.36411084  0.95855369  0.61424833     0.30300
H1323       H  0.25800539  0.55445354  0.54999385     0.38200
H1324       H  0.28497232  0.58716108  0.55842011     0.33600
C1325       C  0.19377272  0.89274500  0.66241253    -0.20100
C1326       C  0.22785251  0.90694391  0.65811058     0.36100
C1327       C  0.23586507  0.91929848  0.63720270    -0.26100
C1328       C  0.21074284  0.91691645  0.62055797     0.02500
C1329       C  0.17692246  0.90225885  0.62475171     0.27400
C1330       C  0.16860334  0.89069672  0.64575060    -0.25200
N1331       N  0.25373978  0.90970028  0.67507156    -0.82600
H1332       H  0.26189965  0.93045487  0.63375694     0.13200
C1333       C  0.22092582  0.92842511  0.59857588     0.02500
N1334       N  0.15148765  0.89866513  0.60759101    -0.81200
H1335       H  0.14251036  0.87963545  0.64911906     0.18000
C1336       C  0.23556353  0.90331064  0.58435486    -0.26000
C1337       C  0.24820447  0.91353058  0.56391462     0.36000
C1338       C  0.24594379  0.94957723  0.55765658    -0.20000
C1339       C  0.23001547  0.97446838  0.57161249    -0.25300
C1340       C  0.21746074  0.96420989  0.59208292     0.27400
H1341       H  0.23795665  0.87583299  0.58949126     0.13200
N1342       N  0.26428205  0.88773252  0.54974789    -0.82600
H1343       H  0.22821904  0.00209606  0.56667804     0.18000
N1344       N  0.20201962  0.99001262  0.60649516    -0.81200
H1345       H  0.26375359  0.86240802  0.55676271     0.33600
H1346       H  0.29109780  0.89454391  0.54786898     0.38100
H1347       H  0.20196002  0.01526046  0.59936929     0.33600
H1348       H  0.17535962  0.98302878  0.60889020     0.30300
H1349       H  0.12810088  0.88672520  0.61327319     0.33600
H1350       H  0.14454368  0.92424724  0.60249145     0.30300
H1351       H  0.26100387  0.88384291  0.67947517     0.38200
H1352       H  0.27691876  0.92202459  0.66938803     0.33600
C1353       C  0.24794099  0.50996195  0.05743604    -0.20100
C1354       C  0.26962636  0.52650697  0.07308730     0.36100
C1355       C  0.25366302  0.54178468  0.09146840    -0.26100
C1356       C  0.21651855  0.54235153  0.09382884     0.02500
C1357       C  0.19476081  0.52877550  0.07730103     0.27400
C1358       C  0.21068946  0.51227859  0.05939088    -0.25200
N1359       N  0.30758141  0.52788025  0.07018561    -0.82600
H1360       H  0.27015279  0.55296745  0.10409999     0.13200
C1361       C  0.20072184  0.55426019  0.11446572     0.02500
N1362       N  0.15665388  0.53197720  0.07875079    -0.81200
H1363       H  0.23042100  0.95102288  0.06947259     0.18000
C1364       C  0.19383830  0.59049904  0.11805701    -0.26000
C1365       C  0.17901034  0.60219384  0.13775431     0.36000
C1366       C  0.17053597  0.57694180  0.15387793    -0.20000
C1367       C  0.17711580  0.54066101  0.14999781    -0.25300
C1368       C  0.19260373  0.52912396  0.13058945     0.27400
H1369       H  0.20030406  0.60960679  0.10554414     0.13200
N1370       N  0.17268448  0.63946644  0.14148630    -0.82600
H1371       H  0.17160534  0.52133953  0.16255475     0.18000
N1372       N  0.26975810  0.06314851  0.12891590    -0.81200
H1373       H  0.18056925  0.65446831  0.12808652     0.33600
H1374       H  0.14519486  0.64301233  0.14315375     0.38100
H1375       H  0.28230715  0.07618060  0.14173656     0.33600
H1376       H  0.27889375  0.03683653  0.12906740     0.30300
H1377       H  0.14458949  0.52143394  0.06496339     0.33600
H1378       H  0.14788374  0.51656976  0.09175657     0.30300
H1379       H  0.26462583  0.07964955  0.04477039     0.38200
H1380       H  0.31960913  0.54104473  0.08313421     0.33600
C1381       C  0.11802809  0.63169158  0.37636249    -0.20100
C1382       C  0.10595069  0.60838642  0.39269719     0.36100
C1383       C  0.09488761  0.62213479  0.41273157    -0.26100
C1384       C  0.09572778  0.65887178  0.41693723     0.02500
C1385       C  0.10841924  0.68225924  0.40083696     0.27400
C1386       C  0.11970189  0.66841628  0.38081441    -0.25200
N1387       N  0.10573781  0.57064980  0.38926264    -0.82600
H1388       H  0.08572084  0.60396100  0.42514649     0.13200
C1389       C  0.08286328  0.67248306  0.43815972     0.02500
N1390       N  0.10916198  0.72001595  0.40474950    -0.81200
H1391       H  0.12901439  0.68654621  0.36842668     0.18000
C1392       C  0.10601221  0.69202827  0.45142112    -0.26000
C1393       C  0.09468827  0.70582086  0.47136591     0.36000
C1394       C  0.05946287  0.69896340  0.47854906    -0.20000
C1395       C  0.03635636  0.67942186  0.46527799    -0.25300
C1396       C  0.04753960  0.66645218  0.44507447     0.27400
H1397       H  0.13310938  0.69690577  0.44611874     0.13200
N1398       N  0.11942729  0.72706271  0.48354989    -0.82600
H1399       H  0.00929943  0.67460666  0.47066741     0.18000
N1400       N  0.02308543  0.64751198  0.43142754    -0.81200
H1401       H  0.12588382  0.74933152  0.47418869     0.33600
H1402       H  0.10804378  0.73694914  0.49771114     0.38100
H1403       H  0.99808781  0.64552933  0.43882589     0.33600
H1404       H  0.01952942  0.66263253  0.41744768     0.30300
H1405       H  0.11931194  0.73354124  0.39133284     0.33600
H1406       H  0.08283492  0.72852116  0.40672390     0.30300
H1407       H  0.07970358  0.56146793  0.39155573     0.38200
H1408       H  0.12185542  0.55889714  0.40099294     0.33600
C1409       C  0.30932483  0.99950034  0.47770064    -0.20100
C1410       C  0.34626285  0.99664230  0.47365242     0.36100
C1411       C  0.36007710  0.51917887  0.45666326    -0.26100
C1412       C  0.33851832  0.53334852  0.44041475     0.02500
C1413       C  0.30116418  0.53137236  0.44244377     0.27400
C1414       C  0.28600280  0.51580465  0.46099377    -0.25200
N1415       N  0.36893410  0.97847927  0.48871204    -0.82600
H1416       H  0.38876108  0.52001631  0.45473067     0.13200
C1417       C  0.35525748  0.54607416  0.42013986     0.02500
N1418       N  0.27884550  0.54439232  0.42537846    -0.81200
H1419       H  0.25732033  0.51520287  0.46280247     0.18000
C1420       C  0.36157023  0.52113857  0.40378011    -0.26000
C1421       C  0.37530631  0.53159392  0.38367529     0.36000
C1422       C  0.38326280  0.56786239  0.37990819    -0.20000
C1423       C  0.37753157  0.59287905  0.39644751    -0.25300
C1424       C  0.36390234  0.58222888  0.41670176     0.27400
H1425       H  0.36795316  0.98788345  0.40830863     0.13200
N1426       N  0.37990585  0.50566743  0.36678005    -0.82600
H1427       H  0.38356899  0.62068885  0.39350288     0.18000
N1428       N  0.35910603  0.60777780  0.43376695    -0.81200
H1429       H  0.39548658  0.97506841  0.37630435     0.33600
H1430       H  0.36198166  0.51190802  0.35446545     0.38100
H1431       H  0.36727664  0.63306226  0.42871715     0.33600
H1432       H  0.33185133  0.60959071  0.43706018     0.30300
H1433       H  0.25199191  0.54020262  0.42910835     0.33600
H1434       H  0.28243292  0.57194391  0.42438311     0.30300
H1435       H  0.36100964  0.95177413  0.48910828     0.38200
H1436       H  0.39534940  0.97872690  0.48333917     0.33600
C1437       C  0.11794566  0.80109780  0.16026835    -0.20100
C1438       C  0.11638514  0.76432748  0.15518442     0.36100
C1439       C  0.10337084  0.75360830  0.13489599    -0.26100
C1440       C  0.09286210  0.77876261  0.11943944     0.02500
C1441       C  0.09518469  0.81536287  0.12432764     0.27400
C1442       C  0.10705151  0.82609744  0.14479429    -0.25200
N1443       N  0.12677714  0.73796388  0.17076882    -0.82600
H1444       H  0.10139698  0.72549020  0.13107416     0.13200
C1445       C  0.07924124  0.76657544  0.09819693     0.02500
N1446       N  0.08596602  0.84148256  0.10833475    -0.81200
H1447       H  0.10863562  0.85426881  0.14850743     0.18000
C1448       C  0.04476624  0.77641180  0.09184160    -0.26000
C1449       C  0.03104417  0.76596390  0.07172723     0.36000
C1450       C  0.05218324  0.74490493  0.05784792    -0.20000
C1451       C  0.08687019  0.73562279  0.06400326    -0.25300
C1452       C  0.10060200  0.74611781  0.08410084     0.27400
H1453       H  0.02854714  0.79235122  0.10265598     0.13200
N1454       N  0.99636022  0.77772669  0.06505004    -0.82600
H1455       H  0.10303079  0.71966440  0.05316396     0.18000
N1456       N  0.13618669  0.73635821  0.09019518    -0.81200
H1457       H  0.98508602  0.79441723  0.07674771     0.33600
H1458       H  0.97983272  0.75547612  0.06413564     0.38100
H1459       H  0.14823325  0.72110424  0.07807193     0.33600
H1460       H  0.15105207  0.75981019  0.09151266     0.30300
H1461       H  0.08911221  0.86723843  0.11447616     0.33600
H1462       H  0.10408724  0.83892741  0.09557006     0.30300
H1463       H  0.15448645  0.73896814  0.17210726     0.38200
H1464       H  0.12089162  0.71235903  0.16513106     0.33600
C1465       C  0.44430089  0.62750379  0.16042543    -0.20100
C1466       C  0.43136755  0.60985064  0.14199195     0.36100
C1467       C  0.44361648  0.62033368  0.12153935    -0.26100
C1468       C  0.46858780  0.64790895  0.11944048     0.02500
C1469       C  0.48219454  0.66487012  0.13799745     0.27400
C1470       C  0.46966882  0.65459377  0.15840938    -0.25200
N1471       N  0.40619194  0.58120345  0.14421085    -0.82600
H1472       H  0.43345297  0.60732267  0.10719744     0.13200
C1473       C  0.47988979  0.65953201  0.09773909     0.02500
N1474       N  0.50877719  0.69226488  0.13594817    -0.81200
H1475       H  0.47986940  0.66747257  0.17278787     0.18000
C1476       C  0.47247793  0.69455170  0.09133489    -0.26000
C1477       C  0.48465765  0.70755377  0.07145546     0.36000
C1478       C  0.50483667  0.68509325  0.05793294    -0.20000
C1479       C  0.02562055  0.67079695  0.06989411    -0.25300
C1480       C  0.01524227  0.65902036  0.09041601     0.27400
H1481       H  0.45740491  0.71181448  0.10201323     0.13200
N1482       N  0.47694106  0.74347049  0.06496690    -0.82600
H1483       H  0.05351242  0.67028985  0.06544651     0.18000
N1484       N  0.04155227  0.64782677  0.10580058    -0.81200
H1485       H  0.46197763  0.75654181  0.07682940     0.33600
H1486       H  0.46099876  0.74217860  0.05118188     0.38100
H1487       H  0.06708569  0.64925773  0.09908061     0.33600
H1488       H  0.04105770  0.66599883  0.11861249     0.30300
H1489       H  0.51597950  0.70204918  0.15113066     0.33600
H1490       H  0.53159674  0.68057448  0.12931677     0.30300
H1491       H  0.38271245  0.59185490  0.15062609     0.38200
H1492       H  0.39971950  0.57067942  0.12908408     0.33600
C1493       C  0.18257708  0.87233625  0.37976905    -0.20100
C1494       C  0.18735443  0.90930546  0.38324768     0.36100
C1495       C  0.20046196  0.92137303  0.40314016    -0.26100
C1496       C  0.20887603  0.89746523  0.41964168     0.02500
C1497       C  0.20302210  0.86066674  0.41660808     0.27400
C1498       C  0.19049752  0.84837149  0.39648872    -0.25200
N1499       N  0.17988182  0.93446000  0.36636449    -0.82600
H1500       H  0.20467988  0.94962588  0.40573569     0.13200
C1501       C  0.22345039  0.91200469  0.43999074     0.02500
N1502       N  0.20853423  0.83621155  0.43413662    -0.81200
H1503       H  0.18647201  0.82010032  0.39390992     0.18000
C1504       C  0.20019870  0.92847841  0.45463731    -0.26000
C1505       C  0.21316123  0.94551295  0.47323162     0.36000
C1506       C  0.25009067  0.94497251  0.47760609    -0.20000
C1507       C  0.27330561  0.92846508  0.46285264    -0.25300
C1508       C  0.26044966  0.91285120  0.44377313     0.27400
H1509       H  0.17191191  0.92877601  0.45122521     0.13200
N1510       N  0.18908844  0.96387796  0.48750477    -0.82600
H1511       H  0.30160765  0.92800758  0.46615352     0.18000
N1512       N  0.28486811  0.89941008  0.42779642    -0.81200
H1513       H  0.16288907  0.96175620  0.48198345     0.33600
H1514       H  0.19564922  0.99094030  0.48707054     0.38100
H1515       H  0.31117692  0.90353661  0.43266779     0.33600
H1516       H  0.28140681  0.87187993  0.42667453     0.30300
H1517       H  0.20199120  0.81025928  0.42940687     0.33600
H1518       H  0.23559697  0.83596788  0.43785861     0.30300
H1519       H  0.19801792  0.92979872  0.35382824     0.38200
H1520       H  0.18432856  0.96052942  0.37166578     0.33600
C1521       C  0.30636686  0.93970621  0.05982942    -0.20100
C1522       C  0.30095598  0.90337484  0.06435691     0.36100
C1523       C  0.31520432  0.88848895  0.08316567    -0.26100
C1524       C  0.33411639  0.90947296  0.09799447     0.02500
C1525       C  0.33831421  0.94632424  0.09393575     0.27400
C1526       C  0.32481231  0.96095252  0.07472444    -0.25200
N1527       N  0.28063680  0.88159310  0.04993109    -0.82600
H1528       H  0.31178688  0.86023304  0.08606134     0.13200
C1529       C  0.35009866  0.89227318  0.11733593     0.02500
N1530       N  0.35615275  0.96869933  0.10934447    -0.81200
H1531       H  0.32877732  0.98897540  0.07128918     0.18000
C1532       C  0.38659428  0.89666438  0.12142900    -0.26000
C1533       C  0.40274849  0.88129817  0.13964238     0.36000
C1534       C  0.38193610  0.86085659  0.15412585    -0.20000
C1535       C  0.34572940  0.85515599  0.14940185    -0.25300
C1536       C  0.32952417  0.87095597  0.13138430     0.27400
H1537       H  0.40259704  0.91218146  0.11029790     0.13200
N1538       N  0.44014155  0.88648565  0.14343178    -0.82600
H1539       H  0.32940134  0.83968915  0.16037255     0.18000
N1540       N  0.29202562  0.86624807  0.12766574    -0.81200
H1541       H  0.45139760  0.90249685  0.13142144     0.33600
H1542       H  0.45248452  0.86158119  0.14224200     0.38100
H1543       H  0.28077995  0.84967404  0.13940111     0.33600
H1544       H  0.27983640  0.89114590  0.12935351     0.30300
H1545       H  0.35710962  0.99502953  0.10387790     0.33600
H1546       H  0.34083143  0.96883008  0.12346672     0.30300
H1547       H  0.29671710  0.86041668  0.04488523     0.38200
H1548       H  0.25908817  0.87105571  0.05854392     0.33600
C1549       C  0.00529113  0.75561572  0.48026497    -0.20100
C1550       C  0.47243191  0.74800954  0.47324676     0.36100
C1551       C  0.45978409  0.75991759  0.45320456    -0.26100
C1552       C  0.48295417  0.77520300  0.43803494     0.02500
C1553       C  0.01813197  0.78437222  0.44591534     0.27400
C1554       C  0.02894519  0.77329310  0.46636446    -0.25200
N1555       N  0.44875346  0.73068882  0.48820848    -0.82600
H1556       H  0.43193851  0.75650943  0.44913934     0.13200
C1557       C  0.46896805  0.78511335  0.41660212     0.02500
N1558       N  0.04416535  0.79959363  0.43170825    -0.81200
H1559       H  0.05642367  0.77714867  0.47112292     0.18000
C1560       C  0.46768098  0.82106009  0.41063689    -0.26000
C1561       C  0.45562359  0.83120766  0.39010744     0.36000
C1562       C  0.44420472  0.80469767  0.37540517    -0.20000
C1563       C  0.44434930  0.76882842  0.38177255    -0.25300
C1564       C  0.45701025  0.75885053  0.40213105     0.27400
H1565       H  0.47618609  0.84121741  0.42204938     0.13200
N1566       N  0.45468184  0.86825737  0.38425237    -0.82600
H1567       H  0.43571580  0.74829059  0.37064389     0.18000
N1568       N  0.45867604  0.72193878  0.40787577    -0.81200
H1569       H  0.46443498  0.88413459  0.39679498     0.33600
H1570       H  0.42799796  0.87534231  0.38213812     0.38100
H1571       H  0.43296444  0.71135741  0.40685543     0.33600
H1572       H  0.47462454  0.70889004  0.39649660     0.30300
H1573       H  0.03609588  0.82531445  0.42759089     0.33600
H1574       H  0.04529014  0.78416470  0.41765750     0.30300
H1575       H  0.45718451  0.70426181  0.48980415     0.38200
H1576       H  0.42291077  0.72974407  0.48203508     0.33600
C1577       C  0.93673998  0.30918244  0.35170335     0.80000
N1578       N  0.95247202  0.33720988  0.34161965    -0.78300
C1579       C  0.94099929  0.34794395  0.32194220     0.82400
N1580       N  0.91346449  0.33074086  0.31234824    -0.78300
C1581       C  0.89794379  0.30246154  0.32223647     0.82500
N1582       N  0.90969026  0.29168624  0.34183820    -0.80000
C1583       C  0.89388797  0.35356797  0.17621466     0.80000
N1584       N  0.92068536  0.37090687  0.18660938    -0.78300
C1585       C  0.92879864  0.36274986  0.20733906     0.82400
N1586       N  0.90924774  0.33794983  0.21795074    -0.78300
C1587       C  0.88323998  0.31956474  0.20763465     0.82500
N1588       N  0.87529172  0.32764048  0.18677658    -0.80000
C1589       C  0.67353753  0.35837571  0.35895117     0.80000
N1590       N  0.64753262  0.37628708  0.34822736    -0.78300
C1591       C  0.63898625  0.36717442  0.32767120     0.82400
N1592       N  0.65727979  0.34080489  0.31760332    -0.78300
C1593       C  0.68230528  0.32185985  0.32839272     0.82500
N1594       N  0.69064279  0.33083573  0.34905148    -0.80000
C1595       C  0.93452625  0.12139355  0.18255389     0.80000
N1596       N  0.90613702  0.13660963  0.19240712    -0.78300
C1597       C  0.89433374  0.12431094  0.21170854     0.82400
N1598       N  0.91091575  0.09623968  0.22121078    -0.78300
C1599       C  0.93972364  0.08113600  0.21146640     0.82500
N1600       N  0.95150516  0.09390079  0.19222643    -0.80000
C1601       C  0.95740019  0.37877112  0.31145441     0.42200
N1602       N  0.49169452  0.42616494  0.30505408     0.01100
C1603       C  0.49084431  0.02931894  0.21293462    -0.06800
H1604       H  0.50199726  0.40148162  0.19563496     0.06600
C1605       C  0.62184740  0.40215967  0.24084258    -0.07100
Co1606     Co  0.96822957  0.46367965  0.26605841     0.74200
N1607       N  0.49593083  0.42909118  0.22609162    -0.26300
Co1608     Co  0.53590568  0.46765202  0.22725609     0.74100
C1609       C  0.61036137  0.38578256  0.22071390     0.42300
N1610       N  0.59615124  0.42760990  0.29242554     0.00700
N1611       N  0.57545031  0.42891930  0.22820886     0.00800
N1612       N  0.94610046  0.03156981  0.23823405    -0.47100
H1613       H  0.92275247  0.39067458  0.28178543     0.06600
N1614       N  0.97008897  0.42520760  0.24189632     0.01100
N1615       N  0.57474256  0.00260972  0.22865472     0.00900
C1616       C  0.60935150  0.04656634  0.22201045     0.42500
N1617       N  0.57134448  0.42807046  0.30758478    -0.25800
C1618       C  0.94030445  0.02788797  0.29239774    -0.06700
N1619       N  0.48646737  0.39995111  0.31895995    -0.46900
N1620       N  0.58171308  0.02762130  0.21413704    -0.47100
C1621       C  0.94958642  0.04301399  0.31325129     0.42200
N1622       N  0.96927041  0.00526926  0.24084468     0.01100
N1623       N  0.56842547  0.00137448  0.30761740    -0.25800
N1624       N  0.96767927  0.42414830  0.28961769    -0.26300
N1625       N  0.59413601  0.00238717  0.29304540     0.00700
H1626       H  0.55800799  0.03208295  0.33645537     0.06600
H1627       H  0.64205417  0.03667645  0.25270260     0.06700
N1628       N  0.49568970  0.00208513  0.22650922    -0.26300
N1629       N  0.59871328  0.42867025  0.24416829    -0.25900
N1630       N  0.48898309  0.00029547  0.30530000     0.01100
C1631       C  0.95397134  0.38488067  0.21944117     0.42500
C1632       C  0.58032096  0.40456072  0.32297392    -0.07200
N1633       N  0.59712534  0.00325121  0.24503506    -0.25900
H1634       H  0.64438916  0.39579908  0.25095695     0.06700
N1635       N  0.94494982  0.40138325  0.23798088    -0.47100
H1636       H  0.56632388  0.40049504  0.33805746     0.06600
C1637       C  0.60669017  0.04447654  0.31504462     0.42300
C1638       C  0.94515572  0.39677930  0.29207743    -0.06700
Co1639     Co  0.53025842  0.46569723  0.30705413     0.73800
N1640       N  0.62198603  0.40463139  0.29654764    -0.46900
C1641       C  0.95777960  0.05049114  0.22109250     0.42600
N1642       N  0.48092696  0.02406267  0.32040461    -0.46900
Co1643     Co  0.59769409  0.46682707  0.26867273     0.73900
C1644       C  0.61972560  0.03045171  0.24237835    -0.07200
C1645       C  0.48780336  0.40521720  0.21068769    -0.06700
N1646       N  0.96518638  0.00311506  0.28876249    -0.26300
N1647       N  0.58154032  0.40368477  0.21365507    -0.47000
H1648       H  0.50769498  0.03591737  0.19932145     0.06600
C1649       C  0.57411912  0.02700661  0.32227708    -0.07200
Cl1650     Cl  0.53315626  0.46638714  0.26715626    -0.50200
C1651       C  0.61358716  0.38869644  0.31537243     0.42400
H1652       H  0.91712313  0.03268260  0.28249478     0.06600
N1653       N  0.61773510  0.02785069  0.29690022    -0.46900
C1654       C  0.63473377  0.31730921  0.18005608     0.80000
N1655       N  0.61729592  0.34472565  0.18989256    -0.78300
C1656       C  0.62777996  0.35595299  0.20975699     0.82400
N1657       N  0.65517068  0.33951892  0.21977403    -0.78300
C1658       C  0.67221315  0.31195277  0.21025228     0.82500
N1659       N  0.66221354  0.30096838  0.19028450    -0.80000
C1660       C  0.89482310  0.07727693  0.35845203     0.80000
N1661       N  0.87576997  0.10305299  0.34817622    -0.78300
C1662       C  0.88173631  0.10985141  0.32691676     0.82400
N1663       N  0.90627243  0.09055032  0.31595472    -0.78300
C1664       C  0.92631494  0.06589951  0.32616802     0.82500
N1665       N  0.92027471  0.05889251  0.34736412    -0.80000
C1666       C  0.63099317  0.11324672  0.35517666     0.80000
N1667       N  0.65824975  0.13004288  0.34482111    -0.78300
C1668       C  0.66916798  0.11882518  0.32503030     0.82400
N1669       N  0.65277090  0.09066634  0.31550741    -0.78300
C1670       C  0.62526439  0.07408616  0.32556701     0.82500
N1671       N  0.61445573  0.08550384  0.34529404    -0.80000
C1672       C  0.66232966  0.08522839  0.17752587     0.80000
N1673       N  0.68023272  0.11123980  0.18824484    -0.78300
C1674       C  0.67405497  0.11723002  0.20949534     0.82400
N1675       N  0.65039824  0.09655639  0.22028949    -0.78300
C1676       C  0.63133473  0.07142642  0.20963104     0.82500
N1677       N  0.63764256  0.06548671  0.18832202    -0.80000
C1678       C  0.85998872  0.29620626  0.22044381     0.42200
N1679       N  0.81970226  0.25817685  0.22888289     0.01100
C1680       C  0.71961080  0.26273689  0.32401307    -0.06800
H1681       H  0.85488219  0.23673482  0.33423443     0.06600
C1682       C  0.84281086  0.12369515  0.29368313    -0.07100
Co1683     Co  0.78197996  0.27979108  0.26945664     0.74200
N1684       N  0.82045856  0.25019840  0.30762897    -0.26300
Co1685     Co  0.78035929  0.21208639  0.30779344     0.74100
C1686       C  0.85778885  0.13278182  0.31458566     0.42300
N1687       N  0.81904665  0.15273386  0.24225014     0.00700
N1688       N  0.81774412  0.17098793  0.30663970     0.00800
N1689       N  0.72041240  0.30440932  0.29770263    -0.47100
H1690       H  0.85034110  0.32862879  0.25136140     0.06600
N1691       N  0.82126494  0.27589165  0.29306969     0.01100
N1692       N  0.74053799  0.17330588  0.30623451     0.00900
C1693       C  0.69820608  0.13715592  0.31371676     0.42500
N1694       N  0.81900028  0.17857830  0.22779796    -0.25800
C1695       C  0.71730072  0.30552779  0.24200707    -0.06700
N1696       N  0.84242224  0.26704810  0.21329523    -0.42900
N1697       N  0.71547854  0.16650797  0.32080171    -0.47100
C1698       C  0.70096020  0.29418955  0.22180622     0.42200
N1699       N  0.74336267  0.27852477  0.29362677     0.01100
N1700       N  0.74170950  0.17894281  0.22769269    -0.25800
N1701       N  0.82034905  0.28075922  0.24520985    -0.26300
N1702       N  0.74084302  0.15381665  0.24254961     0.00700
H1703       H  0.71043563  0.18808165  0.19901251     0.06600
H1704       H  0.70942894  0.10304086  0.28361022     0.06700
N1705       N  0.74334702  0.25363277  0.30866871    -0.26300
N1706       N  0.81798046  0.14850555  0.29025085    -0.25900
N1707       N  0.74269206  0.25806875  0.22959879     0.01100
C1708       C  0.86724524  0.28489107  0.31251239     0.42500
C1709       C  0.84608438  0.17367748  0.21408839    -0.07200
N1710       N  0.74086022  0.14985679  0.29030387    -0.25900
H1711       H  0.84763508  0.10057477  0.28365460     0.06700
N1712       N  0.84891291  0.29742274  0.29546012    -0.47100
H1713       H  0.85256776  0.19046314  0.20044919     0.06600
C1714       C  0.69764958  0.14092367  0.22148485     0.42300
C1715       C  0.84537552  0.30536966  0.24149345    -0.06700
Co1716     Co  0.78078595  0.21833362  0.22804543     0.73800
N1717       N  0.84545564  0.12977949  0.23921044    -0.46900
C1718       C  0.70411053  0.29614311  0.31643147     0.42600
N1719       N  0.71799779  0.26472103  0.21495642    -0.46900
Co1720     Co  0.77974432  0.15057502  0.26622598     0.73900
C1721       C  0.71487882  0.12605799  0.29358848    -0.07200
C1722       C  0.84850213  0.25377949  0.32072582    -0.06700
N1723       N  0.74306476  0.28158770  0.24547563    -0.26300
N1724       N  0.84071059  0.16203542  0.32195200    -0.47000
H1725       H  0.71499754  0.24860458  0.33896791     0.06600
C1726       C  0.71562930  0.17272612  0.21342375    -0.07200
Cl1727     Cl  0.78064377  0.21521609  0.26790896    -0.50200
C1728       C  0.86352613  0.14154666  0.22174501     0.42400
H1729       H  0.71175085  0.32866217  0.25188538     0.06600
N1730       N  0.71504339  0.13042010  0.23936083    -0.46900
C1731       C  0.76799852  0.46299119  0.49740882     0.02100
C1732       C  0.79600401  0.48841205  0.49758552     0.02000
C1733       C  0.80916358  0.50039657  0.51753041    -0.18500
C1734       C  0.79574662  0.48731875  0.53711180     0.02100
C1735       C  0.76729026  0.46253430  0.53697457     0.02000
C1736       C  0.75383006  0.45072726  0.51710857    -0.18500
H1737       H  0.73235859  0.43141986  0.51697352     0.04100
H1738       H  0.82136072  0.02036865  0.51788934     0.04100
C1739       C  0.52211614  0.20329807  0.03695093     0.02100
C1740       C  0.54817916  0.23032859  0.03601270     0.02000
C1741       C  0.55857718  0.24383658  0.01590122    -0.18500
C1742       C  0.54411557  0.23061720  0.99653996     0.02100
C1743       C  0.51874963  0.20249400  0.99748407     0.02000
C1744       C  0.00141830  0.19331205  0.01725059    -0.18500
H1745       H  0.98038847  0.17350113  0.01732888     0.04100
H1746       H  0.57821715  0.26500266  0.01534105     0.04100
C1747       C  0.54741128  0.20725404  0.49961440     0.02100
C1748       C  0.52531983  0.23755748  0.49937989     0.02000
C1749       C  0.51392836  0.25266697  0.51885547    -0.18500
C1750       C  0.52351680  0.23777167  0.53881685     0.02100
C1751       C  0.54591997  0.20723305  0.53905200     0.02000
C1752       C  0.55721976  0.19229408  0.51937398    -0.18500
H1753       H  0.57410163  0.16885517  0.51940251     0.04100
H1754       H  0.98521087  0.26763735  0.51776361     0.04100
C1755       C  0.76808423  0.48705232  0.03873725     0.02100
C1756       C  0.79202943  0.45777114  0.03941036     0.02000
C1757       C  0.80362685  0.44244052  0.01993793    -0.18500
C1758       C  0.79261139  0.45575452  0.99995198     0.02100
C1759       C  0.76873131  0.48478255  0.99922736     0.02000
C1760       C  0.75649966  0.49982907  0.01859495    -0.18500
H1761       H  0.73101250  0.01509006  0.01990072     0.04100
H1762       H  0.82108443  0.41945985  0.02036912     0.04100
C1763       C  0.87766838  0.36921141  0.85559918     0.80000
N1764       N  0.86156859  0.34220815  0.84484462    -0.78300
C1765       C  0.87263465  0.33304035  0.82474301     0.82400
N1766       N  0.90011065  0.35072720  0.81538416    -0.78300
C1767       C  0.91607585  0.37799203  0.82598890     0.82500
N1768       N  0.90466604  0.38736582  0.84600525    -0.80000
C1769       C  0.90843319  0.10764098  0.86092335     0.80000
N1770       N  0.88323724  0.12601939  0.84979466    -0.78300
C1771       C  0.87677358  0.11831025  0.82878158     0.82400
N1772       N  0.89650358  0.09307877  0.81869647    -0.78300
C1773       C  0.92114318  0.07397794  0.82966380     0.82500
N1774       N  0.92740481  0.08152164  0.85079657    -0.80000
C1775       C  0.67958469  0.06837796  0.85488322     0.80000
N1776       N  0.69507223  0.09771492  0.84598955    -0.78300
C1777       C  0.68346821  0.11079376  0.82678080     0.82400
N1778       N  0.65588124  0.09468622  0.81656532    -0.78300
C1779       C  0.64018746  0.06541631  0.82529295     0.82500
N1780       N  0.65214192  0.05227874  0.84440436    -0.80000
C1781       C  0.64257865  0.33950078  0.85994224     0.80000
N1782       N  0.62496916  0.36610320  0.84961356    -0.78300
C1783       C  0.63318796  0.37426533  0.82882885     0.82400
N1784       N  0.65857135  0.35528246  0.81824425    -0.78300
C1785       C  0.67732324  0.32977486  0.82872636     0.82500
N1786       N  0.66884248  0.32152866  0.84941237    -0.80000
C1787       C  0.64044412  0.10763913  0.67879716     0.80000
N1788       N  0.66451234  0.12735020  0.69008243    -0.78300
C1789       C  0.66975973  0.12140966  0.71143718     0.82400
N1790       N  0.65047227  0.09607118  0.72170860    -0.78300
C1791       C  0.62757307  0.07527881  0.71048451     0.82500
N1792       N  0.62227870  0.08135396  0.68915763    -0.80000
C1793       C  0.86849366  0.06320008  0.68538058     0.80000
N1794       N  0.89710399  0.04817079  0.69513728    -0.78300
C1795       C  0.90899402  0.06070314  0.71438770     0.82400
N1796       N  0.89245370  0.08899313  0.72378622    -0.78300
C1797       C  0.86374285  0.10418272  0.71409853     0.82500
N1798       N  0.85185747  0.09117618  0.69496444    -0.80000
C1799       C  0.85481707  0.30418530  0.81331104     0.42200
N1800       N  0.81929214  0.26123453  0.80679510     0.01100
C1801       C  0.81457213  0.15366831  0.71592645    -0.06800
H1802       H  0.80810857  0.28849033  0.69847858     0.06600
C1803       C  0.69093374  0.29226895  0.74428483    -0.07100
Co1804     Co  0.84045743  0.22056523  0.76723291     0.74200
N1805       N  0.81448945  0.25879885  0.72812780    -0.26300
Co1806     Co  0.77277771  0.22206782  0.72948666     0.74100
C1807       C  0.70398383  0.30904544  0.72452047     0.42300
N1808       N  0.71505303  0.26417551  0.79500500     0.00700
N1809       N  0.73535935  0.26282344  0.73109642     0.00800
N1810       N  0.85847975  0.15364000  0.74094254    -0.47100
H1811       H  0.88885228  0.29212481  0.78320757     0.06600
N1812       N  0.83952024  0.25883316  0.74300948     0.01100
N1813       N  0.73105509  0.18536323  0.73134927     0.00900
C1814       C  0.69261963  0.14512350  0.72398222     0.42500
N1815       N  0.74012507  0.26315535  0.80984593    -0.25800
C1816       C  0.86391978  0.15624078  0.79495190    -0.06700
N1817       N  0.82575942  0.28708089  0.82075380    -0.46900
N1818       N  0.72201790  0.16170029  0.71643645    -0.47100
C1819       C  0.85399630  0.14156758  0.81583252     0.42200
N1820       N  0.83642238  0.18081988  0.74373606     0.01100
N1821       N  0.73876520  0.18583318  0.81023172    -0.25800
N1822       N  0.84262339  0.26016656  0.79080697    -0.26300
N1823       N  0.71274338  0.18586190  0.79592474     0.00700
H1824       H  0.75035992  0.15286538  0.83787136     0.06600
H1825       H  0.66032369  0.15688002  0.75475838     0.06700
N1826       N  0.81054810  0.18142998  0.72934407    -0.26300
N1827       N  0.71197311  0.26382900  0.74708732    -0.25900
N1828       N  0.81815308  0.18395022  0.80798004     0.01100
C1829       C  0.85597730  0.29930951  0.72075983     0.42500
C1830       C  0.73353761  0.28882684  0.82444875    -0.07200
N1831       N  0.70845928  0.18607930  0.74771244    -0.25900
H1832       H  0.66904513  0.30003925  0.75465875     0.06700
N1833       N  0.86485801  0.28249825  0.73916468    -0.47100
H1834       H  0.74856980  0.29360003  0.83903444     0.06600
C1835       C  0.70086209  0.14210474  0.81707587     0.42300
C1836       C  0.86616822  0.28663081  0.79347830    -0.06700
Co1837     Co  0.77913380  0.22356284  0.80917454     0.73800
N1838       N  0.69138197  0.28962528  0.79850749    -0.46900
C1839       C  0.84622632  0.13530856  0.72376176     0.42600
N1840       N  0.82585610  0.16043463  0.82325027    -0.46900
Co1841     Co  0.71127484  0.22493503  0.77147044     0.73900
C1842       C  0.68343506  0.16121426  0.74462525    -0.07200
C1843       C  0.82285216  0.28327000  0.71310822    -0.06700
N1844       N  0.84061557  0.18256375  0.79157728    -0.26300
N1845       N  0.73142201  0.28930006  0.71713251    -0.47000
H1846       H  0.79773759  0.14745229  0.70229496     0.06600
C1847       C  0.73347904  0.15925463  0.82430186    -0.07200
Cl1848     Cl  0.77586182  0.22270568  0.76933836    -0.50200
C1849       C  0.70155966  0.30673220  0.81657908     0.42400
H1850       H  0.88667131  0.15009504  0.78486462     0.06600
N1851       N  0.68939682  0.15990380  0.79941767    -0.46900
C1852       C  0.91653145  0.33178177  0.67795915     0.80000
N1853       N  0.93458404  0.35780416  0.68872543    -0.78300
C1854       C  0.92626482  0.36548918  0.70962589     0.82400
N1855       N  0.90026172  0.34670560  0.71976098    -0.78300
C1856       C  0.88106384  0.32193772  0.70888863     0.82500
N1857       N  0.88954242  0.31421429  0.68809662    -0.80000
C1858       C  0.68483511  0.38018158  0.68436084     0.80000
N1859       N  0.65592104  0.39587508  0.69381811    -0.78300
C1860       C  0.64378159  0.38404937  0.71325900     0.82400
N1861       N  0.66009867  0.35628867  0.72296568    -0.78300
C1862       C  0.68849306  0.34019533  0.71371937     0.82500
N1863       N  0.70093865  0.35214374  0.69437850    -0.80000
C1864       C  0.94898137  0.38930614  0.72247583     0.42200
N1865       N  0.98860262  0.42827570  0.73050772     0.01100
C1866       C  0.59215571  0.43027870  0.82451182    -0.06800
H1867       H  0.95601905  0.44595801  0.83756703     0.06600
C1868       C  0.96060014  0.06131242  0.79642271    -0.07100
Co1869     Co  0.52925197  0.40809258  0.77121967     0.74200
N1870       N  0.98870282  0.43568469  0.80950985    -0.26300
Co1871     Co  0.52743358  0.47589736  0.80917831     0.74100
C1872       C  0.94564540  0.05143868  0.81722544     0.42300
N1873       N  0.98504930  0.03407585  0.74490387     0.00700
N1874       N  0.98771203  0.01516133  0.80922872     0.00800
N1875       N  0.59367685  0.38823421  0.79838378    -0.47100
H1876       H  0.96017958  0.35708476  0.75322490     0.06600
N1877       N  0.98876924  0.41004898  0.79487210     0.01100
N1878       N  0.56592960  0.01398336  0.80777376     0.00900
C1879       C  0.60986741  0.04861131  0.81432783     0.42500
N1880       N  0.98601885  0.00824928  0.73037686    -0.25800
C1881       C  0.59601363  0.38719716  0.74383171    -0.06700
N1882       N  0.96562828  0.41893727  0.71524374    -0.46900
N1883       N  0.59224289  0.01964904  0.82156436    -0.47100
C1884       C  0.61252477  0.39973619  0.72389388     0.42200
N1885       N  0.56831880  0.41191873  0.79478760     0.01100
N1886       N  0.56361865  0.00966752  0.72902376    -0.25800
N1887       N  0.98900284  0.40564794  0.74678945    -0.26300
N1888       N  0.56378191  0.03449664  0.74411576     0.00700
H1889       H  0.59357917  0.00319045  0.69941780     0.06600
H1890       H  0.59785277  0.08333229  0.78459184     0.06700
N1891       N  0.56688596  0.43687655  0.80976058    -0.26300
N1892       N  0.98666595  0.03777608  0.79295880    -0.25900
N1893       N  0.56683407  0.43172964  0.73076248     0.01100
C1894       C  0.94549512  0.39724105  0.81590517     0.42500
C1895       C  0.95865603  0.01221677  0.71679835    -0.07200
N1896       N  0.56502874  0.03762152  0.79200566    -0.25900
H1897       H  0.95478330  0.08417883  0.78642818     0.06700
N1898       N  0.96320651  0.38634410  0.79811872    -0.47100
H1899       H  0.95291897  0.99540575  0.70304934     0.06600
C1900       C  0.60465945  0.05052325  0.72213231     0.42300
C1901       C  0.96446065  0.38040249  0.74330844    -0.06700
Co1902     Co  0.52627492  0.46930142  0.72946421     0.73800
N1903       N  0.95783158  0.05610388  0.74195207    -0.46900
C1904       C  0.61025392  0.39837325  0.81664539     0.42600
N1905       N  0.59303208  0.42733605  0.71657788    -0.46900
Co1906     Co  0.52540137  0.03587044  0.76823604     0.73900
C1907       C  0.59193652  0.06070295  0.79478234    -0.07200
C1908       C  0.96226856  0.42978258  0.82359893    -0.06700
N1909       N  0.56791106  0.40857393  0.74679338    -0.26300
N1910       N  0.96408881  0.02298858  0.82454314    -0.47000
H1911       H  0.59651180  0.44525074  0.83919836     0.06600
C1912       C  0.58837560  0.01780190  0.71415406    -0.07200
Cl1913     Cl  0.52689318  0.47261241  0.76932385    -0.50200
C1914       C  0.94004096  0.04379662  0.72452522     0.42400
H1915       H  0.60361700  0.36530397  0.75417110     0.06600
N1916       N  0.58784313  0.05950369  0.74055544    -0.46900
C1917       C  0.75501209  0.49864021  0.97837793    -0.20100
C1918       C  0.77750624  0.51564569  0.96333557     0.36100
C1919       C  0.75984370  0.02895926  0.94632697    -0.26100
C1920       C  0.72543665  0.01987504  0.93939156     0.02500
C1921       C  0.70321933  0.99978316  0.95329306     0.27400
C1922       C  0.71605313  0.98855871  0.97339883    -0.25200
N1923       N  0.81377454  0.52326266  0.96867221    -0.82600
H1924       H  0.77695630  0.04476059  0.93596713     0.13200
C1925       C  0.71308210  0.03232705  0.91785361     0.02500
N1926       N  0.66731713  0.99105441  0.94761296    -0.81200
H1927       H  0.69904880  0.97266820  0.98377225     0.18000
C1928       C  0.70640687  0.00745761  0.90140183    -0.26000
C1929       C  0.69533985  0.01846412  0.88072903     0.36000
C1930       C  0.69149217  0.05520912  0.87631357    -0.20000
C1931       C  0.69875845  0.08002765  0.89271250    -0.25300
C1932       C  0.70904107  0.06896304  0.91348322     0.27400
H1933       H  0.70311794  0.47915604  0.90499240     0.13200
N1934       N  0.68870738  0.99252641  0.86412661    -0.82600
H1935       H  0.69559752  0.10819692  0.88943372     0.18000
N1936       N  0.71518114  0.09474507  0.93024324    -0.81200
H1937       H  0.67744236  0.46710253  0.87228007     0.33600
H1938       H  0.70769731  0.99636228  0.85196997     0.38100
H1939       H  0.71115877  0.12058104  0.92442818     0.33600
H1940       H  0.69605319  0.09056896  0.94226988     0.30300
H1941       H  0.66764101  0.97524677  0.93371443     0.33600
H1942       H  0.65373828  0.01466311  0.94422088     0.30300
H1943       H  0.81747124  0.55081629  0.96766504     0.38200
H1944       H  0.83003169  0.51136943  0.95697999     0.33600
C1945       C  0.80546223  0.43845639  0.97989595    -0.20100
C1946       C  0.84158187  0.44049982  0.97351844     0.36100
C1947       C  0.85165557  0.42817371  0.95314017    -0.26100
C1948       C  0.82658324  0.41326045  0.93910046     0.02500
C1949       C  0.79081568  0.40976731  0.94564335     0.27400
C1950       C  0.78061472  0.42224692  0.96611852    -0.25200
N1951       N  0.86832333  0.45607408  0.98702484    -0.82600
H1952       H  0.87921893  0.43055899  0.94809098     0.13200
C1953       C  0.83840075  0.40209132  0.91743811     0.02500
N1954       N  0.76500835  0.39425074  0.93134553    -0.81200
H1955       H  0.75301304  0.42035231  0.97113909     0.18000
C1956       C  0.84204952  0.36573647  0.91286033    -0.26000
C1957       C  0.85538687  0.35441280  0.89284411     0.36000
C1958       C  0.86479456  0.37988248  0.87711739    -0.20000
C1959       C  0.86126059  0.41627069  0.88180326    -0.25300
C1960       C  0.84786129  0.42765616  0.90181222     0.27400
H1961       H  0.83524992  0.34615631  0.92504339     0.13200
N1962       N  0.86059044  0.31717412  0.88884638    -0.82600
H1963       H  0.86837147  0.43582370  0.86967548     0.18000
N1964       N  0.84382588  0.46500626  0.90638779    -0.81200
H1965       H  0.87781431  0.30728624  0.90062654     0.33600
H1966       H  0.83603867  0.30433261  0.89066166     0.38100
H1967       H  0.85219068  0.48029911  0.89324405     0.33600
H1968       H  0.81659811  0.47004443  0.90842763     0.30300
H1969       H  0.73994308  0.39355615  0.93868412     0.33600
H1970       H  0.76271572  0.41104981  0.91794326     0.30300
H1971       H  0.86864461  0.94030627  0.00215420     0.38200
H1972       H  0.85800173  0.98201662  0.99377935     0.33600
C1973       C  0.62992499  0.11879485  0.65663195    -0.20100
C1974       C  0.60775572  0.09763132  0.64334043     0.36100
C1975       C  0.59487403  0.11145244  0.62381483    -0.26100
C1976       C  0.60375078  0.14599418  0.61713519     0.02500
C1977       C  0.62625158  0.16705966  0.63010073     0.27400
C1978       C  0.63947929  0.15309338  0.64948683    -0.25200
N1979       N  0.59814897  0.06212728  0.64950007    -0.82600
H1980       H  0.57773263  0.09512145  0.61381808     0.13200
C1981       C  0.58882021  0.16014292  0.59674986     0.02500
N1982       N  0.63476739  0.20295174  0.62381722    -0.81200
H1983       H  0.65615151  0.16987322  0.65946882     0.18000
C1984       C  0.55174501  0.16268201  0.59427390    -0.26000
C1985       C  0.53684988  0.17731253  0.57543901     0.36000
C1986       C  0.55961908  0.19084592  0.55921271    -0.20000
C1987       C  0.59663826  0.18732654  0.56155173    -0.25300
C1988       C  0.61130717  0.17159618  0.57994347     0.27400
H1989       H  0.53445067  0.15326348  0.60708796     0.13200
N1990       N  0.49889050  0.17813983  0.57264995    -0.82600
H1991       H  0.61432832  0.19675632  0.54892809     0.18000
N1992       N  0.64905930  0.16671250  0.58137528    -0.81200
H1993       H  0.98493972  0.15828140  0.58519692     0.33600
H1994       H  0.99324408  0.15339687  0.55871069     0.38100
H1995       H  0.65717236  0.15101922  0.56830042     0.33600
H1996       H  0.66122339  0.19164664  0.57985803     0.30300
H1997       H  0.65171332  0.21486857  0.63506612     0.33600
H1998       H  0.61111124  0.21764925  0.62397365     0.30300
H1999       H  0.57037617  0.06069218  0.65039817     0.38200
H2000       H  0.60668332  0.04473111  0.63734552     0.33600
C2001       C  0.50859730  0.25420790  0.55880932    -0.20100
C2002       C  0.96412796  0.25138944  0.56230356     0.36100
C2003       C  0.95139135  0.26688394  0.58150706    -0.26100
C2004       C  0.97487933  0.28001198  0.59713065     0.02500
C2005       C  0.51743836  0.27915521  0.59494545     0.27400
C2006       C  0.53126500  0.26510990  0.57555964    -0.25200
N2007       N  0.93956281  0.23694181  0.54682962    -0.82600
H2008       H  0.92298268  0.26814544  0.58454457     0.13200
C2009       C  0.96005501  0.29399206  0.61766967     0.02500
N2010       N  0.54087969  0.28760704  0.61252159    -0.81200
H2011       H  0.55977949  0.26194768  0.57367200     0.18000
C2012       C  0.95095173  0.26983560  0.63397664    -0.26000
C2013       C  0.93596351  0.28158330  0.65355324     0.36000
C2014       C  0.93017084  0.31844314  0.65693597    -0.20000
C2015       C  0.93915217  0.34260699  0.64050577    -0.25300
C2016       C  0.95349946  0.33065045  0.62071676     0.27400
H2017       H  0.95567362  0.24166249  0.63139141     0.13200
N2018       N  0.92729459  0.25623974  0.67015837    -0.82600
H2019       H  0.93450303  0.37079327  0.64303202     0.18000
N2020       N  0.96038762  0.35536351  0.60349188    -0.81200
H2021       H  0.93277518  0.23028628  0.66499547     0.33600
H2022       H  0.94402417  0.26122113  0.68328651     0.38100
H2023       H  0.95315685  0.38117102  0.60810727     0.33600
H2024       H  0.98782012  0.35584808  0.60068189     0.30300
H2025       H  0.53473705  0.27043891  0.62526994     0.33600
H2026       H  0.56736567  0.28250707  0.60824554     0.30300
H2027       H  0.94385707  0.20947085  0.54600304     0.38200
H2028       H  0.91328181  0.24049977  0.55204579     0.33600
C2029       C  0.55699312  0.24675414  0.97593429    -0.20100
C2030       C  0.53371436  0.26236031  0.96075219     0.36100
C2031       C  0.54789496  0.27817177  0.94198188    -0.26100
C2032       C  0.58479178  0.27962941  0.93844045     0.02500
C2033       C  0.60812215  0.26500415  0.95396935     0.27400
C2034       C  0.59389553  0.24841758  0.97227344    -0.25200
N2035       N  0.99796209  0.27569162  0.96862158    -0.82600
H2036       H  0.53015746  0.28958179  0.93008326     0.13200
C2037       C  0.59840303  0.29524249  0.91808994     0.02500
N2038       N  0.64626946  0.26625968  0.95172371    -0.81200
H2039       H  0.61198785  0.23680837  0.98390865     0.18000
C2040       C  0.60194775  0.33233841  0.91616287    -0.26000
C2041       C  0.61686707  0.34765340  0.89743864     0.36000
C2042       C  0.62851798  0.32526347  0.88051852    -0.20000
C2043       C  0.62456157  0.28819469  0.88249542    -0.25300
C2044       C  0.60939468  0.27297652  0.90103153     0.27400
H2045       H  0.59348926  0.34924513  0.92940832     0.13200
N2046       N  0.62063549  0.38564599  0.89564339    -0.82600
H2047       H  0.63266026  0.27101646  0.86929204     0.18000
N2048       N  0.60448342  0.23505022  0.90247520    -0.81200
H2049       H  0.61075830  0.39825760  0.90947827     0.33600
H2050       H  0.64786677  0.39137114  0.89492696     0.38100
H2051       H  0.61288501  0.22258063  0.88824653     0.33600
H2052       H  0.62099592  0.22557419  0.91474113     0.30300
H2053       H  0.65620938  0.28121570  0.96462262     0.33600
H2054       H  0.65419895  0.27948091  0.93771545     0.30300
H2055       H  0.99711978  0.29052467  0.98291351     0.38200
H2056       H  0.98610606  0.29131189  0.95668079     0.33600
C2057       C  0.92087909  0.12186240  0.88179852    -0.20100
C2058       C  0.92522683  0.10011332  0.90012211     0.36100
C2059       C  0.93948615  0.11500110  0.91911157    -0.26100
C2060       C  0.94987991  0.15091727  0.91984422     0.02500
C2061       C  0.94606809  0.17247229  0.90141506     0.27400
C2062       C  0.93101748  0.15784667  0.88268886    -0.25200
N2063       N  0.91520964  0.06318303  0.89934507    -0.82600
H2064       H  0.94288567  0.09855414  0.93332074     0.13200
C2065       C  0.96599020  0.16535203  0.93976098     0.02500
N2066       N  0.95903909  0.20854458  0.90147008    -0.81200
H2067       H  0.92841908  0.17426672  0.86839837     0.18000
C2068       C  0.00244031  0.16015286  0.94340284    -0.26000
C2069       C  0.52351079  0.17053126  0.96142206     0.36000
C2070       C  0.99826077  0.19261317  0.97731062    -0.20000
C2071       C  0.96168236  0.19740755  0.97372758    -0.25300
C2072       C  0.94526512  0.18386400  0.95509779     0.27400
H2073       H  0.52278072  0.14556202  0.92994423     0.13200
N2074       N  0.56146777  0.16796180  0.96384793    -0.82600
H2075       H  0.94594564  0.21179510  0.98555865     0.18000
N2076       N  0.90753668  0.18788545  0.95201040    -0.81200
H2077       H  0.57292929  0.15570202  0.95034545     0.33600
H2078       H  0.56645579  0.15134883  0.97702622     0.38100
H2079       H  0.89610593  0.20134350  0.96508244     0.33600
H2080       H  0.90354683  0.20399972  0.93849640     0.30300
H2081       H  0.95531357  0.22034251  0.88636131     0.33600
H2082       H  0.94377314  0.22324362  0.91241640     0.30300
H2083       H  0.88766817  0.06204926  0.89700601     0.38200
H2084       H  0.92025659  0.05088435  0.91415849     0.33600
C2085       C  0.81208486  0.49929592  0.55769410    -0.20100
C2086       C  0.80339653  0.03680598  0.56427685     0.36100
C2087       C  0.81650459  0.04622698  0.58477554    -0.26100
C2088       C  0.82769653  0.02005652  0.59940128     0.02500
C2089       C  0.83457110  0.48288395  0.59327752     0.27400
C2090       C  0.82491279  0.47356283  0.57217060    -0.25200
N2091       N  0.78993285  0.06369517  0.54996277    -0.82600
H2092       H  0.81695469  0.07394933  0.58967164     0.13200
C2093       C  0.83849979  0.03071360  0.62141574     0.02500
N2094       N  0.84406596  0.45584309  0.60864639    -0.81200
H2095       H  0.82558185  0.44584219  0.56729280     0.18000
C2096       C  0.81208086  0.03714713  0.63698043    -0.26000
C2097       C  0.82113838  0.04743854  0.65810634     0.36000
C2098       C  0.85739524  0.05097463  0.66371305    -0.20000
C2099       C  0.88375795  0.04419952  0.64811254    -0.25300
C2100       C  0.87467192  0.03465166  0.62689300     0.27400
H2101       H  0.78432999  0.03411323  0.63257660     0.13200
N2102       N  0.79375185  0.05397071  0.67389025    -0.82600
H2103       H  0.91155101  0.04750679  0.65232954     0.18000
N2104       N  0.90188326  0.03047154  0.61069338    -0.81200
H2105       H  0.76853632  0.05043095  0.66710007     0.33600
H2106       H  0.79630903  0.03473064  0.68597584     0.38100
H2107       H  0.92704103  0.03547310  0.61724601     0.33600
H2108       H  0.90203580  0.00392747  0.60569131     0.30300
H2109       H  0.84245764  0.43055345  0.60162067     0.33600
H2110       H  0.87069279  0.45962688  0.61288592     0.30300
H2111       H  0.76265707  0.05915524  0.54804472     0.38200
H2112       H  0.79249476  0.08897228  0.55690551     0.33600
C2113       C  0.69691945  0.39188934  0.66258134    -0.20100
C2114       C  0.73331356  0.39740325  0.65757229     0.36100
C2115       C  0.74310195  0.40827169  0.63658191    -0.26100
C2116       C  0.71739963  0.41334173  0.62050102     0.02500
C2117       C  0.68117354  0.40768784  0.62540044     0.27400
C2118       C  0.67128659  0.39742073  0.64644008    -0.25200
N2119       N  0.76003744  0.39350204  0.67396812    -0.82600
H2120       H  0.77088182  0.41299411  0.63272802     0.13200
C2121       C  0.72863814  0.42581600  0.59878192     0.02500
N2122       N  0.65467694  0.41155337  0.60885290    -0.81200
H2123       H  0.64341837  0.39304414  0.65017320     0.18000
C2124       C  0.73980040  0.40104057  0.58317816    -0.26000
C2125       C  0.75167342  0.41227953  0.56266613     0.36000
C2126       C  0.75142079  0.44895712  0.55754209    -0.20000
C2127       C  0.73908771  0.47348662  0.57301605    -0.25300
C2128       C  0.72867091  0.46240295  0.59375377     0.27400
H2129       H  0.73997910  0.37296340  0.58721582     0.13200
N2130       N  0.76487345  0.38677396  0.54726800    -0.82600
H2131       H  0.73896614  0.50161901  0.56913930     0.18000
N2132       N  0.71960637  0.48824026  0.61002485    -0.81200
H2133       H  0.76323779  0.36096300  0.55352213     0.33600
H2134       H  0.79191794  0.39205247  0.54479450     0.38100
H2135       H  0.72235351  0.51408491  0.60397820     0.33600
H2136       H  0.69272679  0.48501824  0.61394514     0.30300
H2137       H  0.62936324  0.40575248  0.61497881     0.33600
H2138       H  0.65411572  0.43825332  0.60413942     0.30300
H2139       H  0.76219703  0.36638242  0.67751370     0.38200
H2140       H  0.78496165  0.40127529  0.66805738     0.33600
C2141       C  0.74879932  0.99724515  0.06027890    -0.20100
C2142       C  0.74952365  0.03445027  0.06361025     0.36100
C2143       C  0.73490022  0.04898732  0.08249031    -0.26100
C2144       C  0.71958020  0.02708195  0.09827762     0.02500
C2145       C  0.71884884  0.98985500  0.09513332     0.27400
C2146       C  0.73308014  0.97533033  0.07602058    -0.25200
N2147       N  0.76540783  0.05758288  0.04792047    -0.82600
H2148       H  0.73546694  0.07760241  0.08483937     0.13200
C2149       C  0.70460548  0.04360450  0.11806004     0.02500
N2150       N  0.70390389  0.96702086  0.11142447    -0.81200
H2151       H  0.69936398  0.49472637  0.04920040     0.18000
C2152       C  0.66807647  0.04038154  0.12248099    -0.26000
C2153       C  0.65305840  0.05537708  0.14124577     0.36000
C2154       C  0.67521547  0.07359937  0.15597271    -0.20000
C2155       C  0.71159270  0.07777808  0.15105323    -0.25300
C2156       C  0.72653242  0.06280030  0.13234908     0.27400
H2157       H  0.65126964  0.02614771  0.11119656     0.13200
N2158       N  0.61549293  0.05224397  0.14534510    -0.82600
H2159       H  0.72889820  0.09145806  0.16230465     0.18000
N2160       N  0.72216861  0.48912032  0.13397468    -0.81200
H2161       H  0.60474067  0.07793375  0.14506752     0.33600
H2162       H  0.60307262  0.03800422  0.13295818     0.38100
H2163       H  0.71942776  0.47614578  0.14881485     0.33600
H2164       H  0.70694120  0.47473748  0.12286977     0.30300
H2165       H  0.70532351  0.94036025  0.10658983     0.33600
H2166       H  0.71975251  0.96936982  0.12520253     0.30300
H2167       H  0.81845973  0.53766781  0.05731972     0.38200
H2168       H  0.78579816  0.07188139  0.05544812     0.33600
C2169       C  0.61880307  0.12581529  0.37674511    -0.20100
C2170       C  0.59864565  0.10391063  0.39077314     0.36100
C2171       C  0.58716477  0.11722782  0.41075896    -0.26100
C2172       C  0.59518244  0.15212774  0.41717921     0.02500
C2173       C  0.61545705  0.17411270  0.40332458     0.27400
C2174       C  0.62724837  0.16064437  0.38337143    -0.25200
N2175       N  0.59034657  0.06784170  0.38511536    -0.82600
H2176       H  0.57220280  0.09996075  0.42147323     0.13200
C2177       C  0.58274885  0.16500539  0.43860745     0.02500
N2178       N  0.62365716  0.21015281  0.40945491    -0.81200
H2179       H  0.64255645  0.17778666  0.37278170     0.18000
C2180       C  0.60756894  0.17937611  0.45308364    -0.26000
C2181       C  0.59699254  0.19337407  0.47304343     0.36000
C2182       C  0.56072197  0.19116048  0.47925507    -0.20000
C2183       C  0.53604942  0.17558631  0.46510826    -0.25300
C2184       C  0.54650858  0.16324067  0.44464507     0.27400
H2185       H  0.63547729  0.18047545  0.44862490     0.13200
N2186       N  0.62366762  0.21036654  0.48613820    -0.82600
H2187       H  0.50829362  0.17409116  0.46982640     0.18000
N2188       N  0.52043215  0.14963015  0.42982124    -0.81200
H2189       H  0.63372127  0.23194067  0.47734816     0.33600
H2190       H  0.61305634  0.22115075  0.50025608     0.38100
H2191       H  0.49494448  0.15064544  0.43665494     0.33600
H2192       H  0.52009733  0.16653332  0.41643787     0.30300
H2193       H  0.63897625  0.22266246  0.39756285     0.33600
H2194       H  0.59962937  0.22415226  0.41043929     0.30300
H2195       H  0.56264174  0.06498147  0.38523998     0.38200
H2196       H  0.60083038  0.05112491  0.39698852     0.33600
C2197       C  0.81203569  0.50322886  0.47738731    -0.20100
C2198       C  0.84936702  0.50341135  0.47425504     0.36100
C2199       C  0.85590671  0.01334585  0.45528905    -0.26100
C2200       C  0.83491227  0.02990350  0.43958536     0.02500
C2201       C  0.79766932  0.03169264  0.44249068     0.27400
C2202       C  0.78236528  0.01812710  0.46157899    -0.25200
N2203       N  0.87239911  0.48653778  0.48966099    -0.82600
H2204       H  0.88436830  0.01117922  0.45266145     0.13200
C2205       C  0.85213045  0.04260397  0.41942669     0.02500
N2206       N  0.77547063  0.04611058  0.42576449    -0.81200
H2207       H  0.75393353  0.02040027  0.46408470     0.18000
C2208       C  0.86000172  0.01770266  0.40326165    -0.26000
C2209       C  0.87548087  0.02828438  0.38360495     0.36000
C2210       C  0.88298113  0.06473662  0.37998779    -0.20000
C2211       C  0.87609045  0.08953912  0.39646702    -0.25300
C2212       C  0.86132095  0.07871004  0.41636093     0.27400
H2213       H  0.86656254  0.49407065  0.40791966     0.13200
N2214       N  0.88251449  0.00226170  0.36707086    -0.82600
H2215       H  0.88225216  0.11739170  0.39377694     0.18000
N2216       N  0.85651304  0.10396768  0.43359186    -0.81200
H2217       H  0.89221665  0.48067690  0.37548059     0.33600
H2218       H  0.86568831  0.00774286  0.35407688     0.38100
H2219       H  0.86565755  0.12912554  0.42893174     0.33600
H2220       H  0.82924570  0.10658352  0.43653687     0.30300
H2221       H  0.74861240  0.04437793  0.43014659     0.33600
H2222       H  0.78122959  0.07320652  0.42426028     0.30300
H2223       H  0.86650958  0.45930695  0.48958600     0.38200
H2224       H  0.89905001  0.48897110  0.48495896     0.33600
C2225       C  0.62390805  0.30511672  0.15842985    -0.20100
C2226       C  0.58914662  0.29250613  0.15463559     0.36100
C2227       C  0.57985121  0.28086652  0.13384085    -0.26100
C2228       C  0.60460528  0.28173232  0.11686785     0.02500
C2229       C  0.63922818  0.29488560  0.12053355     0.27400
C2230       C  0.64872872  0.30598110  0.14144669    -0.25200
N2231       N  0.56363977  0.29117352  0.17197039    -0.82600
H2232       H  0.55320100  0.27106914  0.13079462     0.13200
C2233       C  0.59330048  0.26917735  0.09532286     0.02500
N2234       N  0.66406231  0.29808158  0.10292224    -0.81200
H2235       H  0.67532777  0.31600558  0.14445085     0.18000
C2236       C  0.57443164  0.29243617  0.08186921    -0.26000
C2237       C  0.55994678  0.28048824  0.06224025     0.36000
C2238       C  0.56487825  0.24469727  0.05593940    -0.20000
C2239       C  0.58502948  0.22188644  0.06904765    -0.25300
C2240       C  0.59874677  0.23356993  0.08890267     0.27400
H2241       H  0.57018059  0.31970451  0.08702823     0.13200
N2242       N  0.53975950  0.30431022  0.04887558    -0.82600
H2243       H  0.58948625  0.19465957  0.06392688     0.18000
N2244       N  0.61680668  0.20910257  0.10296274    -0.81200
H2245       H  0.53877861  0.32972869  0.05577470     0.33600
H2246       H  0.51356356  0.29493620  0.04841984     0.38100
H2247       H  0.61744619  0.18360799  0.09614300     0.33600
H2248       H  0.64325432  0.21736673  0.10432122     0.30300
H2249       H  0.68800368  0.30920409  0.10826064     0.33600
H2250       H  0.67011694  0.27249575  0.09739404     0.30300
H2251       H  0.57298568  0.27289519  0.18334670     0.38200
H2252       H  0.53924947  0.28134891  0.16645383     0.33600
C2253       C  0.94569832  0.13332349  0.16097183    -0.20100
C2254       C  0.92132788  0.13418933  0.14367474     0.36100
C2255       C  0.93345686  0.14367254  0.12302960    -0.26100
C2256       C  0.96903918  0.15318981  0.11956688     0.02500
C2257       C  0.99317210  0.15348990  0.13693871     0.27400
C2258       C  0.98136967  0.14281316  0.15747575    -0.25200
N2259       N  0.88468233  0.12441533  0.14697598    -0.82600
H2260       H  0.91503296  0.14417371  0.10960021     0.13200
C2261       C  0.97983228  0.16530893  0.09791569     0.02500
N2262       N  0.02905097  0.16585782  0.13381447    -0.81200
H2263       H  0.99982655  0.14249606  0.17089063     0.18000
C2264       C  0.97223156  0.20045959  0.09200242    -0.26000
C2265       C  0.98199978  0.21340132  0.07162235     0.36000
C2266       C  0.00061462  0.19097219  0.05725527    -0.20000
C2267       C  0.52404536  0.15971821  0.06714826    -0.25300
C2268       C  0.51485232  0.14885908  0.08814509     0.27400
H2269       H  0.95860410  0.21775982  0.10335272     0.13200
N2270       N  0.97329542  0.24921287  0.06542275    -0.82600
H2271       H  0.54423503  0.14527431  0.05818106     0.18000
N2272       N  0.53209498  0.11863033  0.09777163    -0.81200
H2273       H  0.95963641  0.26225203  0.07786293     0.33600
H2274       H  0.95580304  0.24771399  0.05235578     0.38100
H2275       H  0.55036428  0.10729081  0.08700243     0.33600
H2276       H  0.54677253  0.12786509  0.11095709     0.30300
H2277       H  0.04297903  0.16556178  0.14839630     0.33600
H2278       H  0.04206167  0.14795399  0.12356637     0.30300
H2279       H  0.87278877  0.14445395  0.15623463     0.38200
H2280       H  0.87102757  0.12408753  0.13228897     0.33600
C2281       C  0.68724374  0.37272230  0.37956728    -0.20100
C2282       C  0.69844461  0.40859408  0.38097366     0.36100
C2283       C  0.71193417  0.42168711  0.40055476    -0.26100
C2284       C  0.71449732  0.39969991  0.41870253     0.02500
C2285       C  0.70323914  0.36390138  0.41743808     0.27400
C2286       C  0.69012400  0.35056320  0.39771356    -0.25200
N2287       N  0.69663965  0.43142681  0.36238272    -0.82600
H2288       H  0.72063096  0.44916084  0.40170195     0.13200
C2289       C  0.72848683  0.41505875  0.43898694     0.02500
N2290       N  0.70428334  0.34164627  0.43629654    -0.81200
H2291       H  0.68156151  0.32305724  0.39656811     0.18000
C2292       C  0.70514374  0.43328139  0.45280280    -0.26000
C2293       C  0.71762671  0.44977290  0.47171093     0.36000
C2294       C  0.75408047  0.44734172  0.47704129    -0.20000
C2295       C  0.77744380  0.42927147  0.46307994    -0.25300
C2296       C  0.76505965  0.41347140  0.44392916     0.27400
H2297       H  0.67720301  0.43504557  0.44861300     0.13200
N2298       N  0.69361546  0.46941418  0.48537345    -0.82600
H2299       H  0.80542492  0.42754273  0.46716371     0.18000
N2300       N  0.78952792  0.39663719  0.42922573    -0.81200
H2301       H  0.66776202  0.46866771  0.47916283     0.33600
H2302       H  0.70160122  0.49609297  0.48510601     0.38100
H2303       H  0.81557915  0.39855347  0.43500003     0.33600
H2304       H  0.78337899  0.36949694  0.42867490     0.30300
H2305       H  0.69435312  0.31626902  0.43276344     0.33600
H2306       H  0.73091485  0.33826118  0.44063384     0.30300
H2307       H  0.71418180  0.42125418  0.35076005     0.38200
H2308       H  0.70565953  0.45701951  0.36615921     0.33600
C2309       C  0.80637389  0.44265159  0.05985284    -0.20100
C2310       C  0.78410207  0.42831905  0.07608239     0.36100
C2311       C  0.79945800  0.41441799  0.09500211    -0.26100
C2312       C  0.83655510  0.41324802  0.09754860     0.02500
C2313       C  0.85885041  0.42592211  0.08091555     0.27400
C2314       C  0.84351695  0.44091002  0.06238589    -0.25200
N2315       N  0.74619501  0.42715407  0.07307463    -0.82600
H2316       H  0.78252762  0.40389049  0.10767763     0.13200
C2317       C  0.85178140  0.39802441  0.11754831     0.02500
N2318       N  0.89688149  0.42224540  0.08252375    -0.81200
H2319       H  0.86063426  0.45113841  0.04970689     0.18000
C2320       C  0.85493402  0.36092397  0.11961127    -0.26000
C2321       C  0.86916307  0.34554411  0.13845904     0.36000
C2322       C  0.88075280  0.36785490  0.15539351    -0.20000
C2323       C  0.87770600  0.40500360  0.15315308    -0.25300
C2324       C  0.86283848  0.42030687  0.13456611     0.27400
H2325       H  0.84618024  0.34399176  0.10647664     0.13200
N2326       N  0.87209406  0.30751714  0.14040680    -0.82600
H2327       H  0.88580391  0.42217190  0.16633163     0.18000
N2328       N  0.85740090  0.45819837  0.13334075    -0.81200
H2329       H  0.89917585  0.30127668  0.14123935     0.33600
H2330       H  0.86225036  0.29497015  0.12656724     0.38100
H2331       H  0.86589493  0.47061306  0.14753899     0.33600
H2332       H  0.87338882  0.46825081  0.12095120     0.30300
H2333       H  0.90932757  0.43175565  0.06854900     0.33600
H2334       H  0.90573039  0.43831636  0.09517884     0.30300
H2335       H  0.74109392  0.41035693  0.05997193     0.38200
H2336       H  0.73368291  0.41576979  0.08650285     0.33600
C2337       C  0.51273356  0.25273038  0.47877771    -0.20100
C2338       C  0.96856946  0.24109474  0.47188738     0.36100
C2339       C  0.95783036  0.25164274  0.45116622    -0.26100
C2340       C  0.98231711  0.26642209  0.43658044     0.02500
C2341       C  0.52722064  0.27870407  0.44385454     0.27400
C2342       C  0.53740297  0.26818610  0.46456186    -0.25200
N2343       N  0.94365211  0.22452720  0.48641129    -0.82600
H2344       H  0.93041095  0.24795627  0.44623363     0.13200
C2345       C  0.97000343  0.27695480  0.41491473     0.02500
N2346       N  0.55393184  0.29263282  0.42961564    -0.81200
H2347       H  0.56497462  0.27104947  0.46939765     0.18000
C2348       C  0.96920799  0.31315303  0.40954838    -0.26000
C2349       C  0.95811812  0.32435627  0.38906164     0.36000
C2350       C  0.94785656  0.29863548  0.37360646    -0.20000
C2351       C  0.94746393  0.26242255  0.37930836    -0.25300
C2352       C  0.95850771  0.25142177  0.39983733     0.27400
H2353       H  0.97694335  0.33274056  0.42151423     0.13200
N2354       N  0.95641119  0.36173183  0.38411294    -0.82600
H2355       H  0.93913521  0.24252023  0.36767791     0.18000
N2356       N  0.95850444  0.21433383  0.40525452    -0.81200
H2357       H  0.96509890  0.37698986  0.39721635     0.33600
H2358       H  0.92963617  0.36821335  0.38173296     0.38100
H2359       H  0.93251903  0.20474743  0.40358803     0.33600
H2360       H  0.97459390  0.20097977  0.39406430     0.30300
H2361       H  0.54715855  0.31869334  0.42542409     0.33600
H2362       H  0.55443990  0.27705958  0.41562334     0.30300
H2363       H  0.95216544  0.19836020  0.48899475     0.38200
H2364       H  0.91848249  0.22281602  0.47932441     0.33600
C2365       C  0.93916427  0.81344829  0.35263062     0.80000
N2366       N  0.95433772  0.84109413  0.34183793    -0.78300
C2367       C  0.94286310  0.85006771  0.32182095     0.82400
N2368       N  0.91586885  0.83154309  0.31265560    -0.78300
C2369       C  0.90083485  0.80366758  0.32321205     0.82500
N2370       N  0.91257221  0.79455458  0.34315763    -0.80000
C2371       C  0.89853456  0.84851008  0.17563658     0.80000
N2372       N  0.92491239  0.86751620  0.18538083    -0.78300
C2373       C  0.93342878  0.86134820  0.20634948     0.82400
N2374       N  0.91490898  0.83678657  0.21780007    -0.78300
C2375       C  0.88949234  0.81680032  0.20816127     0.82500
N2376       N  0.88107767  0.82296335  0.18718418    -0.80000
C2377       C  0.67141011  0.85482546  0.35866534     0.80000
N2378       N  0.64455754  0.87149220  0.34800623    -0.78300
C2379       C  0.63766060  0.86322895  0.32705749     0.82400
N2380       N  0.65813237  0.83872373  0.31670545    -0.78300
C2381       C  0.68395099  0.82087563  0.32750630     0.82500
N2382       N  0.69087386  0.82933619  0.34839260    -0.80000
C2383       C  0.93775227  0.61735912  0.18238201     0.80000
N2384       N  0.91033809  0.63423590  0.19237934    -0.78300
C2385       C  0.89871514  0.62325564  0.21205472     0.82400
N2386       N  0.91457528  0.59510448  0.22188292    -0.78300
C2387       C  0.94250840  0.57859438  0.21214164     0.82500
N2388       N  0.95396644  0.58986720  0.19254006    -0.80000
C2389       C  0.95857349  0.88054281  0.31053422     0.42200
N2390       N  0.49043603  0.92294253  0.30430585     0.01100
C2391       C  0.49036304  0.53319802  0.21418520    -0.06800
H2392       H  0.50252261  0.89613291  0.19563055     0.06600
C2393       C  0.62143307  0.89891014  0.24173931    -0.07100
Co2394     Co  0.96755212  0.96525649  0.26436783     0.74200
N2395       N  0.49538526  0.92497856  0.22559612    -0.26300
Co2396     Co  0.53534171  0.96353819  0.22680293     0.74100
C2397       C  0.61007126  0.88145699  0.22197413     0.42300
N2398       N  0.59537013  0.92458134  0.29230049     0.00700
N2399       N  0.57503514  0.92495493  0.22849331     0.00800
N2400       N  0.94803375  0.52995528  0.23955290    -0.47100
H2401       H  0.92350451  0.89071625  0.28072807     0.06600
N2402       N  0.97095111  0.92716846  0.24008214     0.01100
N2403       N  0.57578740  0.50641699  0.22900452     0.00900
C2404       C  0.61230845  0.54871481  0.22190705     0.42500
N2405       N  0.57017444  0.92440001  0.30719632    -0.25800
C2406       C  0.94413894  0.52837531  0.29341457    -0.06700
N2407       N  0.48460797  0.89698177  0.31831583    -0.46900
N2408       N  0.58365259  0.53091855  0.21431767    -0.47100
C2409       C  0.95434991  0.54400959  0.31395753     0.42200
N2410       N  0.97064698  0.50324515  0.24236805     0.01100
N2411       N  0.56931381  0.50473816  0.30755200    -0.25800
N2412       N  0.96775089  0.92550577  0.28802826    -0.26300
N2413       N  0.59500021  0.50516313  0.29292553     0.00700
H2414       H  0.55920085  0.53632869  0.33605931     0.06600
H2415       H  0.64533224  0.53740027  0.25227325     0.06700
N2416       N  0.49614585  0.50608967  0.22768893    -0.26300
N2417       N  0.59825188  0.92555206  0.24446908    -0.25900
N2418       N  0.48913192  0.50366231  0.30610839     0.01100
C2419       C  0.95704776  0.88569769  0.21791485     0.42500
C2420       C  0.57863706  0.90009677  0.32224319    -0.07200
N2421       N  0.59857053  0.50620770  0.24516955    -0.25900
H2422       H  0.64379261  0.89299121  0.25209473     0.06700
N2423       N  0.94718552  0.90192922  0.23637963    -0.47100
H2424       H  0.56418225  0.89531795  0.33708957     0.06600
C2425       C  0.60769014  0.54780958  0.31430099     0.42300
C2426       C  0.94588528  0.89761284  0.29085879    -0.06700
Co2427     Co  0.52934491  0.96217903  0.30654495     0.73800
N2428       N  0.62097448  0.90127861  0.29623750    -0.46900
C2429       C  0.95988799  0.54793014  0.22209050     0.42600
N2430       N  0.47983315  0.52698111  0.32129195    -0.46900
Co2431     Co  0.59686205  0.96401061  0.26867267     0.73900
C2432       C  0.62235586  0.53232050  0.24224116    -0.07200
C2433       C  0.48775826  0.90053538  0.21041515    -0.06700
N2434       N  0.96733814  0.50185776  0.29029521    -0.26300
N2435       N  0.58127275  0.89895832  0.21447564    -0.47000
H2436       H  0.50655956  0.53997853  0.20031526     0.06600
C2437       C  0.57517003  0.53075828  0.32189136    -0.07200
Cl2438     Cl  0.53230418  0.96302257  0.26669336    -0.50200
C2439       C  0.61206941  0.88443117  0.31468222     0.42400
H2440       H  0.92159513  0.53444859  0.28323986     0.06600
N2441       N  0.61863653  0.53065607  0.29637356    -0.46900
C2442       C  0.63469689  0.81262785  0.18179517     0.80000
N2443       N  0.61711139  0.83978880  0.19172517    -0.78300
C2444       C  0.62802436  0.85171044  0.21130511     0.82400
N2445       N  0.65640044  0.83638912  0.22101740    -0.78300
C2446       C  0.67397127  0.80922425  0.21134896     0.82500
N2447       N  0.66326700  0.79745604  0.19164817    -0.80000
C2448       C  0.90148364  0.58163783  0.35881826     0.80000
N2449       N  0.88184242  0.60647205  0.34814659    -0.78300
C2450       C  0.88708041  0.61196240  0.32669041     0.82400
N2451       N  0.91148128  0.59218109  0.31590012    -0.78300
C2452       C  0.93214258  0.56845376  0.32650649     0.82500
N2453       N  0.92691594  0.56298886  0.34791805    -0.80000
C2454       C  0.63543055  0.61469872  0.35445147     0.80000
N2455       N  0.66175112  0.63178016  0.34349272    -0.78300
C2456       C  0.67081193  0.62144707  0.32324738     0.82400
N2457       N  0.65352208  0.59382810  0.31381568    -0.78300
C2458       C  0.62684281  0.57702583  0.32451513     0.82500
N2459       N  0.61782877  0.58753204  0.34472998    -0.80000
C2460       C  0.66632228  0.58470915  0.17701616     0.80000
N2461       N  0.68437531  0.61120627  0.18718669    -0.78300
C2462       C  0.67824492  0.61804606  0.20839557     0.82400
N2463       N  0.65432299  0.59801364  0.21947507    -0.78300
C2464       C  0.63517870  0.57245731  0.20924469     0.82500
N2465       N  0.64180223  0.56529673  0.18813030    -0.80000
C2466       C  0.86704252  0.79362577  0.22148349     0.42200
N2467       N  0.82493471  0.75740739  0.22939458     0.01100
C2468       C  0.72256393  0.76261436  0.32343537    -0.06800
H2469       H  0.85754769  0.73730673  0.33542623     0.06600
C2470       C  0.84706525  0.62420886  0.29351657    -0.07100
Co2471     Co  0.78654867  0.77974355  0.26957803     0.74200
N2472       N  0.82411947  0.75005529  0.30815521    -0.26300
Co2473     Co  0.78381672  0.71210673  0.30763397     0.74100
C2474       C  0.86234693  0.63392544  0.31426694     0.42300
N2475       N  0.82343226  0.65253546  0.24219747     0.00700
N2476       N  0.82105666  0.67093230  0.30653790     0.00800
N2477       N  0.72422438  0.80467524  0.29734391    -0.47100
H2478       H  0.85737959  0.82670903  0.25219400     0.06600
N2479       N  0.82528800  0.77561957  0.29353094     0.01100
N2480       N  0.74373900  0.67386667  0.30536879     0.00900
C2481       C  0.69958185  0.63958210  0.31179792     0.42500
N2482       N  0.82378916  0.67840651  0.22777837    -0.25800
C2483       C  0.72111510  0.80470116  0.24230631    -0.06700
N2484       N  0.84864977  0.76516807  0.21420121    -0.42900
N2485       N  0.71764614  0.66805183  0.31935794    -0.47100
C2486       C  0.70431061  0.79290265  0.22231661     0.42200
N2487       N  0.74742223  0.77887688  0.29347870     0.01100
N2488       N  0.74645042  0.67923267  0.22697360    -0.25800
N2489       N  0.82563376  0.78007475  0.24566727    -0.26300
N2490       N  0.74516813  0.65403668  0.24176224     0.00700
H2491       H  0.71586878  0.68872128  0.19803041     0.06600
H2492       H  0.71083799  0.60527866  0.28177809     0.06700
N2493       N  0.74692176  0.75380059  0.30839792    -0.26300
N2494       N  0.82149002  0.64836851  0.29018292    -0.25900
N2495       N  0.74768307  0.75821890  0.22944176     0.01100
C2496       C  0.87045532  0.78529172  0.31360089     0.42500
C2497       C  0.85120485  0.67348820  0.21429003    -0.07200
N2498       N  0.74402625  0.65050810  0.28939312    -0.25900
H2499       H  0.85265626  0.60140686  0.28336635     0.06700
N2500       N  0.85263252  0.79735661  0.29624207    -0.47100
H2501       H  0.85808372  0.69029886  0.20073436     0.06600
C2502       C  0.70235936  0.64144971  0.22028815     0.42300
C2503       C  0.85180971  0.80365010  0.24227366    -0.06700
Co2504     Co  0.78571100  0.71830704  0.22793821     0.73800
N2505       N  0.84980515  0.62950655  0.23933884    -0.46900
C2506       C  0.70721394  0.79605941  0.31579270     0.42600
N2507       N  0.72213022  0.76405050  0.21520461    -0.46900
Co2508     Co  0.78358668  0.65058883  0.26581975     0.73900
C2509       C  0.71685002  0.62784738  0.29201037    -0.07200
C2510       C  0.85162746  0.75406247  0.32170495    -0.06700
N2511       N  0.74785121  0.78163331  0.24537990    -0.26300
N2512       N  0.84463099  0.66275734  0.32165224    -0.47000
H2513       H  0.71726928  0.74815394  0.33819337     0.06600
C2514       C  0.72068667  0.67321241  0.21243205    -0.07200
Cl2515     Cl  0.78487490  0.71519949  0.26776695    -0.50200
C2516       C  0.86836955  0.64129418  0.22206555     0.42400
H2517       H  0.71471718  0.82719077  0.25253640     0.06600
N2518       N  0.71929993  0.63082338  0.23830878    -0.46900
C2519       C  0.75830436  0.96367791  0.49791349     0.02100
C2520       C  0.78662397  0.98867634  0.49788213     0.02000
C2521       C  0.79969543  0.00128206  0.51776151    -0.18500
C2522       C  0.78603455  0.98878603  0.53748888     0.02100
C2523       C  0.75768649  0.96387320  0.53737044     0.02000
C2524       C  0.74402238  0.95190545  0.51762103    -0.18500
H2525       H  0.72263313  0.93248638  0.51759095     0.04100
H2526       H  0.83044291  0.51990739  0.51785550     0.04100
C2527       C  0.52031866  0.69857480  0.03759489     0.02100
C2528       C  0.54739168  0.72479803  0.03734330     0.02000
C2529       C  0.55951175  0.73766210  0.01735321    -0.18500
C2530       C  0.54503817  0.72531751  0.99777942     0.02100
C2531       C  0.51849431  0.69842231  0.99824557     0.02000
C2532       C  0.00156236  0.69195994  0.01547751    -0.18500
H2533       H  0.98265077  0.67017695  0.01452740     0.04100
H2534       H  0.58029229  0.75770803  0.01700441     0.04100
C2535       C  0.55010171  0.70998026  0.49772857     0.02100
C2536       C  0.52379107  0.73686985  0.49837065     0.02000
C2537       C  0.51083987  0.74868650  0.51836855    -0.18500
C2538       C  0.52255501  0.73351679  0.53783107     0.02100
C2539       C  0.54832445  0.70582626  0.53707527     0.02000
C2540       C  0.56166954  0.69459057  0.51702428    -0.18500
H2541       H  0.58112237  0.67325605  0.51637569     0.04100
H2542       H  0.98626464  0.77179713  0.52079648     0.04100
C2543       C  0.76340975  0.98126399  0.04009995     0.02100
C2544       C  0.78853873  0.95297820  0.04026952     0.02000
C2545       C  0.80121966  0.93952473  0.02048716    -0.18500
C2546       C  0.79008871  0.95385331  0.00069861     0.02100
C2547       C  0.76451827  0.98149583  0.00054956     0.02000
C2548       C  0.75114077  0.99440052  0.02017552    -0.18500
H2549       H  0.73803087  0.52200110  0.01796297     0.04100
H2550       H  0.82000162  0.91762241  0.02052562     0.04100
C2551       C  0.87574590  0.87173204  0.85496507     0.80000
N2552       N  0.86049555  0.84352753  0.84481325    -0.78300
C2553       C  0.87259841  0.83279705  0.82517647     0.82400
N2554       N  0.90030866  0.85012946  0.81574573    -0.78300
C2555       C  0.91541992  0.87849935  0.82577130     0.82500
N2556       N  0.90294924  0.88933289  0.84526355    -0.80000
C2557       C  0.91226894  0.61093243  0.85872755     0.80000
N2558       N  0.88558255  0.62782914  0.84808818    -0.78300
C2559       C  0.87681357  0.61781385  0.82777757     0.82400
N2560       N  0.89566133  0.59183806  0.81781111    -0.78300
C2561       C  0.92169133  0.57417372  0.82841101     0.82500
N2562       N  0.93031787  0.58399240  0.84883819    -0.80000
C2563       C  0.67843727  0.56861178  0.85431683     0.80000
N2564       N  0.69464261  0.59740084  0.84529094    -0.78300
C2565       C  0.68352718  0.61030991  0.82597369     0.82400
N2566       N  0.65593919  0.59459008  0.81566735    -0.78300
C2567       C  0.63962181  0.56589543  0.82450087     0.82500
N2568       N  0.65084103  0.55293644  0.84379725    -0.80000
C2569       C  0.64074370  0.83381084  0.86024066     0.80000
N2570       N  0.62253241  0.86046316  0.85025464    -0.78300
C2571       C  0.63094355  0.86991794  0.82966706     0.82400
N2572       N  0.65710409  0.85223791  0.81898876    -0.78300
C2573       C  0.67631183  0.82672407  0.82912340     0.82500
N2574       N  0.66767805  0.81712971  0.84956913    -0.80000
C2575       C  0.64156098  0.60710675  0.67699954     0.80000
N2576       N  0.66529842  0.62701264  0.68844766    -0.78300
C2577       C  0.66965830  0.62160946  0.70994061     0.82400
N2578       N  0.64972889  0.59668976  0.72013459    -0.78300
C2579       C  0.62702866  0.57579865  0.70881817     0.82500
N2580       N  0.62267417  0.58123233  0.68731485    -0.80000
C2581       C  0.86643798  0.56164906  0.68635884     0.80000
N2582       N  0.89532267  0.54704576  0.69590776    -0.78300
C2583       C  0.90735709  0.55961263  0.71502316     0.82400
N2584       N  0.89071291  0.58768182  0.72456624    -0.78300
C2585       C  0.86160612  0.60247253  0.71507719     0.82500
N2586       N  0.84952534  0.58938394  0.69599081    -0.80000
C2587       C  0.85556075  0.80280192  0.81417555     0.42200
N2588       N  0.81954392  0.76030243  0.80717741     0.01100
C2589       C  0.81351750  0.65279101  0.71642215    -0.06800
H2590       H  0.80750426  0.79015481  0.69952568     0.06600
C2591       C  0.69108183  0.79131020  0.74464204    -0.07100
Co2592     Co  0.84049224  0.72019923  0.76731912     0.74200
N2593       N  0.81444133  0.75895131  0.72854075    -0.26300
Co2594     Co  0.77290008  0.72179818  0.72943905     0.74100
C2595       C  0.70437771  0.80841264  0.72511828     0.42300
N2596       N  0.71505220  0.76283340  0.79490076     0.00700
N2597       N  0.73553485  0.76217732  0.73124590     0.00800
N2598       N  0.85759851  0.65276817  0.74132043    -0.47100
H2599       H  0.88963535  0.79092593  0.78405526     0.06600
N2600       N  0.83933175  0.75891917  0.74350042     0.01100
N2601       N  0.73116167  0.68494819  0.73078504     0.00900
C2602       C  0.69229263  0.64540872  0.72270469     0.42500
N2603       N  0.74015000  0.76191813  0.80973141    -0.25800
C2604       C  0.86344338  0.65524171  0.79426882    -0.06700
N2605       N  0.82618857  0.78583511  0.82136445    -0.46900
N2606       N  0.72199147  0.66191289  0.71551910    -0.47100
C2607       C  0.85326771  0.64002069  0.81490848     0.42200
N2608       N  0.83634052  0.68066509  0.74368841     0.01100
N2609       N  0.73896732  0.68479864  0.80970465    -0.25800
N2610       N  0.84296707  0.75934716  0.79124159    -0.26300
N2611       N  0.71308656  0.68479234  0.79530909     0.00700
H2612       H  0.75044335  0.65172154  0.83729555     0.06600
H2613       H  0.65980915  0.65654032  0.75350549     0.06700
N2614       N  0.81041335  0.68125359  0.72934915    -0.26300
N2615       N  0.71206799  0.76286337  0.74717621    -0.25900
N2616       N  0.81798406  0.68297089  0.80761734     0.01100
C2617       C  0.85492378  0.80104332  0.72216364     0.42500
C2618       C  0.73335999  0.78734133  0.82443674    -0.07200
N2619       N  0.70844879  0.68534027  0.74709120    -0.25900
H2620       H  0.66917389  0.79887357  0.75505627     0.06700
N2621       N  0.86406861  0.78343031  0.74023138    -0.47100
H2622       H  0.74828827  0.79198786  0.83907601     0.06600
C2623       C  0.70126661  0.64105606  0.81624921     0.42300
C2624       C  0.86684217  0.78544463  0.79423866    -0.06700
Co2625     Co  0.77918421  0.72255810  0.80904420     0.73800
N2626       N  0.69114173  0.78797558  0.79853931    -0.46900
C2627       C  0.84466369  0.63399080  0.72451053     0.42600
N2628       N  0.82541785  0.65895711  0.82261510    -0.46900
Co2629     Co  0.71137578  0.72386581  0.77117681     0.73900
C2630       C  0.68313761  0.66088189  0.74355790    -0.07200
C2631       C  0.82234783  0.78440869  0.71404453    -0.06700
N2632       N  0.84044827  0.68185181  0.79123250    -0.26300
N2633       N  0.73176090  0.78891185  0.71752110    -0.47000
H2634       H  0.79613489  0.64615062  0.70312205     0.06600
C2635       C  0.73370878  0.65813162  0.82366527    -0.07200
Cl2636     Cl  0.77593977  0.72207257  0.76924851    -0.50200
C2637       C  0.70117846  0.80495771  0.81667387     0.42400
H2638       H  0.88617984  0.64923215  0.78413772     0.06600
N2639       N  0.68978779  0.65882517  0.79863528    -0.46900
C2640       C  0.91604223  0.83213345  0.67947666     0.80000
N2641       N  0.93476754  0.85770258  0.69021229    -0.78300
C2642       C  0.92657559  0.86589962  0.71103653     0.82400
N2643       N  0.90012015  0.84782747  0.72127022    -0.78300
C2644       C  0.88019514  0.82359844  0.71039399     0.82500
N2645       N  0.88834110  0.81578158  0.68960267    -0.80000
C2646       C  0.68487708  0.87850443  0.68493976     0.80000
N2647       N  0.65572430  0.89401748  0.69416449    -0.78300
C2648       C  0.64366464  0.88245374  0.71364761     0.82400
N2649       N  0.66021317  0.85507177  0.72355435    -0.78300
C2650       C  0.68886544  0.83928247  0.71444056     0.82500
N2651       N  0.70131725  0.85096297  0.69509905    -0.80000
C2652       C  0.94981818  0.88956796  0.72361761     0.42200
N2653       N  0.98973021  0.92848549  0.73130232     0.01100
C2654       C  0.59076582  0.92685056  0.82528049    -0.06800
H2655       H  0.95529371  0.94611149  0.83757825     0.06600
C2656       C  0.96043662  0.56116998  0.79515695    -0.07100
Co2657     Co  0.52886955  0.90663090  0.77106322     0.74200
N2658       N  0.98903356  0.93549950  0.81005892    -0.26300
Co2659     Co  0.52758237  0.97411104  0.80952122     0.74100
C2660       C  0.94536525  0.55121668  0.81588432     0.42300
N2661       N  0.98483572  0.53384941  0.74407718     0.00700
N2662       N  0.98755947  0.51516005  0.80810649     0.00800
N2663       N  0.59200666  0.88503840  0.79900169    -0.47100
H2664       H  0.96153235  0.85735812  0.75426730     0.06600
N2665       N  0.98951812  0.90982220  0.79544033     0.01100
N2666       N  0.56534227  0.51556873  0.80703459     0.00900
C2667       C  0.60955981  0.54947300  0.81342328     0.42500
N2668       N  0.98542560  0.50797894  0.72958140    -0.25800
C2669       C  0.59555887  0.88539202  0.74390659    -0.06700
N2670       N  0.96637210  0.91919887  0.71623526    -0.46900
N2671       N  0.59160584  0.52097367  0.82081639    -0.47100
C2672       C  0.61226264  0.89799007  0.72406927     0.42200
N2673       N  0.56764617  0.90962627  0.79504694     0.01100
N2674       N  0.56300418  0.51062363  0.72817006    -0.25800
N2675       N  0.99038909  0.90579343  0.74753322    -0.26300
N2676       N  0.56338198  0.53568556  0.74310973     0.00700
H2677       H  0.59215040  0.50377308  0.69829089     0.06600
H2678       H  0.59835184  0.58398223  0.78345823     0.06700
N2679       N  0.56644917  0.93449966  0.81010515    -0.26300
N2680       N  0.98657589  0.53771242  0.79181052    -0.25900
N2681       N  0.56699902  0.93047841  0.73096370     0.01100
C2682       C  0.94534134  0.89733572  0.81587726     0.42500
C2683       C  0.95751503  0.51181219  0.71643416    -0.07200
N2684       N  0.56481317  0.53891691  0.79110813    -0.25900
H2685       H  0.95459504  0.58398484  0.78512305     0.06700
N2686       N  0.96368390  0.88624536  0.79835758    -0.47100
H2687       H  0.95110682  0.49480351  0.70288745     0.06600
C2688       C  0.60349757  0.55162594  0.72054415     0.42300
C2689       C  0.96577019  0.88057381  0.74425600    -0.06700
Co2690     Co  0.52665404  0.96839736  0.72971882     0.73800
N2691       N  0.95740767  0.55572219  0.74160378    -0.46900
C2692       C  0.60801166  0.89435231  0.81762261     0.42600
N2693       N  0.59319531  0.92592333  0.71681050    -0.46900
Co2694     Co  0.52520341  0.53719381  0.76745756     0.73900
C2695       C  0.59203022  0.56160866  0.79376632    -0.07200
C2696       C  0.96203961  0.92979095  0.82375792    -0.06700
N2697       N  0.56774273  0.90708835  0.74688383    -0.26300
N2698       N  0.96386096  0.52295480  0.82334705    -0.47000
H2699       H  0.59475455  0.94135513  0.84017626     0.06600
C2700       C  0.58726791  0.51863831  0.71297380    -0.07200
Cl2701     Cl  0.52710648  0.97121983  0.76961758    -0.50200
C2702       C  0.93903862  0.54325018  0.72451154     0.42400
H2703       H  0.60279620  0.86325099  0.75415297     0.06600
N2704       N  0.58717449  0.56079894  0.73912170    -0.46900
C2705       C  0.75083070  0.99670303  0.97999082    -0.20100
C2706       C  0.77261624  0.01763286  0.96648510     0.36100
C2707       C  0.76413073  0.52565220  0.94309979    -0.26100
C2708       C  0.72840513  0.51937349  0.93765368     0.02500
C2709       C  0.70570597  0.50295176  0.95296318     0.27400
C2710       C  0.71917496  0.49291778  0.97311112    -0.25200
N2711       N  0.80763073  0.02760398  0.97328040    -0.82600
H2712       H  0.78168764  0.53858162  0.93160326     0.13200
C2713       C  0.71500126  0.53196140  0.91643644     0.02500
N2714       N  0.66872089  0.49691818  0.94871434    -0.81200
H2715       H  0.70169594  0.47994724  0.98462956     0.18000
C2716       C  0.70248355  0.50731044  0.90119120    -0.26000
C2717       C  0.68973315  0.51851526  0.88095128     0.36000
C2718       C  0.69048397  0.55516751  0.87563742    -0.20000
C2719       C  0.70340796  0.57968463  0.89088315    -0.25300
C2720       C  0.71524647  0.56852687  0.91127984     0.27400
H2721       H  0.71029658  0.97936726  0.90464313     0.13200
N2722       N  0.67670437  0.49272899  0.86571391    -0.82600
H2723       H  0.70371980  0.60782235  0.88700366     0.18000
N2724       N  0.72742274  0.59417989  0.92685756    -0.81200
H2725       H  0.69253267  0.96672731  0.87003326     0.33600
H2726       H  0.69407198  0.49266625  0.85248070     0.38100
H2727       H  0.72602803  0.61997241  0.92055466     0.33600
H2728       H  0.70991675  0.59338128  0.94000401     0.30300
H2729       H  0.66639917  0.47928130  0.93574183     0.33600
H2730       H  0.65699316  0.52115601  0.94449149     0.30300
H2731       H  0.80898937  0.05541418  0.97352138     0.38200
H2732       H  0.82577629  0.01841965  0.96170643     0.33600
C2733       C  0.80421859  0.93894860  0.98017358    -0.20100
C2734       C  0.84052926  0.94226042  0.97430009     0.36100
C2735       C  0.85156921  0.93194396  0.95362793    -0.26100
C2736       C  0.82717824  0.91811711  0.93874169     0.02500
C2737       C  0.79117806  0.91408594  0.94459745     0.27400
C2738       C  0.78015878  0.92400019  0.96540275    -0.25200
N2739       N  0.86653342  0.95685406  0.98869775    -0.82600
H2740       H  0.87934506  0.93472199  0.94912006     0.13200
C2741       C  0.83979690  0.90678641  0.91723912     0.02500
N2742       N  0.76596879  0.90037381  0.92926918    -0.81200
H2743       H  0.75244274  0.92103596  0.96995620     0.18000
C2744       C  0.84312888  0.87031073  0.91295381    -0.26000
C2745       C  0.85495800  0.85818699  0.89272986     0.36000
C2746       C  0.86318768  0.88321173  0.87646634    -0.20000
C2747       C  0.86006846  0.91980799  0.88087377    -0.25300
C2748       C  0.84809066  0.93186874  0.90111112     0.27400
H2749       H  0.83680123  0.85130705  0.92555344     0.13200
N2750       N  0.85942688  0.82068010  0.88883740    -0.82600
H2751       H  0.86642232  0.93897481  0.86837125     0.18000
N2752       N  0.84409376  0.96933952  0.90532927    -0.81200
H2753       H  0.88660211  0.81602202  0.88635370     0.33600
H2754       H  0.85210382  0.80596622  0.90245808     0.38100
H2755       H  0.85137089  0.98421748  0.89179031     0.33600
H2756       H  0.81698042  0.97427168  0.90800822     0.30300
H2757       H  0.74054883  0.89904904  0.93613794     0.33600
H2758       H  0.76438698  0.91865197  0.91656980     0.30300
H2759       H  0.87052205  0.44092515  0.00107931     0.38200
H2760       H  0.86047954  0.48186223  0.99124627     0.33600
C2761       C  0.63172314  0.61806255  0.65472794    -0.20100
C2762       C  0.61530121  0.59454035  0.63995452     0.36100
C2763       C  0.60275076  0.60752110  0.62010521    -0.26100
C2764       C  0.60641049  0.64359059  0.61466411     0.02500
C2765       C  0.62308266  0.66710511  0.62921319     0.27400
C2766       C  0.63592442  0.65404322  0.64891901    -0.25200
N2767       N  0.61152408  0.55747044  0.64491140    -0.82600
H2768       H  0.59001560  0.58938295  0.60889906     0.13200
C2769       C  0.59185456  0.65690915  0.59399975     0.02500
N2770       N  0.62606887  0.70437264  0.62412962    -0.81200
H2771       H  0.64792132  0.67254857  0.66018185     0.18000
C2772       C  0.55497511  0.65598209  0.59048443    -0.26000
C2773       C  0.54009769  0.67095653  0.57175990     0.36000
C2774       C  0.56254276  0.68817800  0.55670366    -0.20000
C2775       C  0.59955274  0.68779502  0.55991373    -0.25300
C2776       C  0.61432622  0.67201006  0.57828266     0.27400
H2777       H  0.53778838  0.64388191  0.60249604     0.13200
N2778       N  0.50245333  0.66863252  0.56792553    -0.82600
H2779       H  0.61708528  0.70012905  0.54816343     0.18000
N2780       N  0.65219530  0.67117179  0.58093663    -0.81200
H2781       H  0.98758527  0.65481883  0.58229683     0.33600
H2782       H  0.99596144  0.65432404  0.55566776     0.38100
H2783       H  0.66316835  0.65767229  0.56772987     0.33600
H2784       H  0.66158589  0.69739499  0.58060921     0.30300
H2785       H  0.63907499  0.71809176  0.63650615     0.33600
H2786       H  0.60029164  0.71480897  0.62330280     0.30300
H2787       H  0.58445451  0.55105813  0.64430928     0.38200
H2788       H  0.62459231  0.54284335  0.63288472     0.33600
C2789       C  0.50792575  0.74787405  0.55850153    -0.20100
C2790       C  0.96491836  0.75041650  0.56356178     0.36100
C2791       C  0.95114159  0.76548389  0.58262654    -0.26100
C2792       C  0.97379886  0.77862726  0.59871525     0.02500
C2793       C  0.51833962  0.77335279  0.59434050     0.27400
C2794       C  0.53129516  0.75943925  0.57474388    -0.25200
N2795       N  0.94116958  0.73649548  0.54744906    -0.82600
H2796       H  0.92257586  0.76692608  0.58501841     0.13200
C2797       C  0.95812300  0.79331817  0.61887573     0.02500
N2798       N  0.54254842  0.78295032  0.61131733    -0.81200
H2799       H  0.55976512  0.75761750  0.57212059     0.18000
C2800       C  0.93797334  0.77074494  0.63208874    -0.26000
C2801       C  0.92392172  0.78266198  0.65185580     0.36000
C2802       C  0.92895853  0.81866017  0.65821762    -0.20000
C2803       C  0.94874004  0.84138236  0.64469733    -0.25300
C2804       C  0.96338200  0.82907512  0.62510705     0.27400
H2805       H  0.93430850  0.74321903  0.62727178     0.13200
N2806       N  0.90596019  0.75780309  0.66579972    -0.82600
H2807       H  0.95292164  0.86884049  0.64946764     0.18000
N2808       N  0.98362906  0.85265990  0.61153609    -0.81200
H2809       H  0.90401873  0.73275362  0.65849228     0.33600
H2810       H  0.92182315  0.75438859  0.67948691     0.38100
H2811       H  0.96971203  0.85562084  0.59706233     0.33600
H2812       H  0.98532766  0.87798794  0.61850533     0.30300
H2813       H  0.56881454  0.77769803  0.60668691     0.33600
H2814       H  0.54079092  0.81045802  0.61368508     0.30300
H2815       H  0.94558425  0.70905003  0.54633933     0.38200
H2816       H  0.91464626  0.73981999  0.55219931     0.33600
C2817       C  0.55844309  0.74126113  0.97734640    -0.20100
C2818       C  0.53580636  0.75966392  0.96303380     0.36100
C2819       C  0.55011347  0.77452510  0.94404009    -0.26100
C2820       C  0.58670475  0.77241319  0.93949231     0.02500
C2821       C  0.60962603  0.75560023  0.95447164     0.27400
C2822       C  0.59506790  0.73970156  0.97292542    -0.25200
N2823       N  0.99780270  0.77129565  0.96412854    -0.82600
H2824       H  0.53274213  0.78805510  0.93277447     0.13200
C2825       C  0.60025573  0.78798963  0.91906974     0.02500
N2826       N  0.64767195  0.75436800  0.95167920    -0.81200
H2827       H  0.61266186  0.72627459  0.98411629     0.18000
C2828       C  0.60201454  0.82515704  0.91687533    -0.26000
C2829       C  0.61567132  0.84088485  0.89794791     0.36000
C2830       C  0.62768627  0.81890601  0.88093958    -0.20000
C2831       C  0.62562169  0.78168156  0.88315415    -0.25300
C2832       C  0.61170049  0.76598663  0.90194998     0.27400
H2833       H  0.59306070  0.84187477  0.93008992     0.13200
N2834       N  0.61785452  0.87897724  0.89605135    -0.82600
H2835       H  0.63412527  0.76474501  0.86992841     0.18000
N2836       N  0.60807489  0.72790789  0.90345379    -0.81200
H2837       H  0.60786994  0.89127267  0.90995892     0.33600
H2838       H  0.64482202  0.88576372  0.89505616     0.38100
H2839       H  0.61629543  0.71571952  0.88909397     0.33600
H2840       H  0.62536810  0.71887987  0.91542686     0.30300
H2841       H  0.65909339  0.76782339  0.96472159     0.33600
H2842       H  0.65590825  0.76801558  0.93788037     0.30300
H2843       H  0.99287736  0.78785619  0.97738739     0.38200
H2844       H  0.98667659  0.78374193  0.95065770     0.33600
C2845       C  0.92589611  0.62627567  0.87898162    -0.20100
C2846       C  0.93630179  0.60454558  0.89636484     0.36100
C2847       C  0.95039731  0.62047277  0.91496990    -0.26100
C2848       C  0.95510625  0.65744838  0.91622088     0.02500
C2849       C  0.94622020  0.67915623  0.89851231     0.27400
C2850       C  0.93088845  0.66335837  0.88020573    -0.25200
N2851       N  0.93248642  0.56651015  0.89505149    -0.82600
H2852       H  0.95798152  0.60402394  0.92856707     0.13200
C2853       C  0.97023798  0.67243429  0.93616795     0.02500
N2854       N  0.95458205  0.71657712  0.89869608    -0.81200
H2855       H  0.92407335  0.67986957  0.86648246     0.18000
C2856       C  0.00681876  0.66858682  0.93993457    -0.26000
C2857       C  0.52172049  0.66576197  0.96247741     0.36000
C2858       C  0.99979234  0.69446692  0.97562316    -0.20000
C2859       C  0.96306357  0.69766692  0.97194720    -0.25300
C2860       C  0.94795640  0.68653150  0.95239673     0.27400
H2861       H  0.51974241  0.64013182  0.93123072     0.13200
N2862       N  0.55927148  0.66022156  0.96536492    -0.82600
H2863       H  0.94619952  0.70902935  0.98440624     0.18000
N2864       N  0.91000747  0.68784443  0.94938109    -0.81200
H2865       H  0.57000342  0.64641110  0.95219408     0.33600
H2866       H  0.56251751  0.64382385  0.97884343     0.38100
H2867       H  0.89741870  0.69750147  0.96328420     0.33600
H2868       H  0.90455754  0.70615550  0.93717434     0.30300
H2869       H  0.94753823  0.72834388  0.88401412     0.33600
H2870       H  0.93912336  0.72893860  0.91053798     0.30300
H2871       H  0.90529463  0.56082696  0.89413654     0.38200
H2872       H  0.94184407  0.55441628  0.90914482     0.33600
C2873       C  0.80267670  0.00057082  0.55813256    -0.20100
C2874       C  0.81157452  0.53550290  0.56388440     0.36100
C2875       C  0.82254052  0.54497207  0.58477375    -0.26100
C2876       C  0.83314760  0.51888902  0.59956220     0.02500
C2877       C  0.82677382  0.98390615  0.59336297     0.27400
C2878       C  0.81558118  0.97470251  0.57250560    -0.25200
N2879       N  0.79877621  0.56225061  0.54924612    -0.82600
H2880       H  0.82171133  0.57261236  0.58982540     0.13200
C2881       C  0.84171733  0.52960563  0.62181896     0.02500
N2882       N  0.83524546  0.95661375  0.60879465    -0.81200
H2883       H  0.81550541  0.94696282  0.56772386     0.18000
C2884       C  0.81413682  0.53272145  0.63704106    -0.26000
C2885       C  0.82135989  0.54314704  0.65839962     0.36000
C2886       C  0.85683282  0.55028514  0.66440889    -0.20000
C2887       C  0.88427633  0.54702179  0.64911348    -0.25300
C2888       C  0.87703669  0.53709528  0.62777818     0.27400
H2889       H  0.78702517  0.52693961  0.63220444     0.13200
N2890       N  0.79307640  0.54602099  0.67399726    -0.82600
H2891       H  0.91144235  0.55298322  0.65375487     0.18000
N2892       N  0.90517504  0.53561608  0.61199790    -0.81200
H2893       H  0.76859193  0.53990339  0.66689999     0.33600
H2894       H  0.79748774  0.52674296  0.68585996     0.38100
H2895       H  0.92947659  0.54291150  0.61893810     0.33600
H2896       H  0.90797555  0.50919268  0.60701477     0.30300
H2897       H  0.83140945  0.93133591  0.60208556     0.33600
H2898       H  0.86228090  0.95853797  0.61247928     0.30300
H2899       H  0.77177830  0.55724092  0.54649582     0.38200
H2900       H  0.80032586  0.58752493  0.55629376     0.33600
C2901       C  0.69620980  0.88911530  0.66303576    -0.20100
C2902       C  0.73126237  0.90058632  0.65846191     0.36100
C2903       C  0.73980754  0.91203790  0.63741741    -0.26100
C2904       C  0.71431579  0.91100222  0.62091221     0.02500
C2905       C  0.67993346  0.89787547  0.62526649     0.27400
C2906       C  0.67105795  0.88758038  0.64638539    -0.25200
N2907       N  0.75755974  0.90175556  0.67526864    -0.82600
H2908       H  0.76631975  0.92187353  0.63383832     0.13200
C2909       C  0.72363303  0.92438311  0.59917111     0.02500
N2910       N  0.65435963  0.89466624  0.60815399    -0.81200
H2911       H  0.64443838  0.87797282  0.64987429     0.18000
C2912       C  0.73771885  0.90082354  0.58380945    -0.26000
C2913       C  0.74758216  0.91287502  0.56314766     0.36000
C2914       C  0.74299237  0.94916393  0.55783161    -0.20000
C2915       C  0.72780803  0.97243843  0.57304929    -0.25300
C2916       C  0.71820062  0.96040741  0.59373727     0.27400
H2917       H  0.74158171  0.87312803  0.58812226     0.13200
N2918       N  0.76323662  0.88873298  0.54778094    -0.82600
H2919       H  0.72448744  0.00028935  0.56893688     0.18000
N2920       N  0.70384455  0.98473406  0.60945652    -0.81200
H2921       H  0.76471945  0.86303292  0.55421660     0.33600
H2922       H  0.78943376  0.89697087  0.54498314     0.38100
H2923       H  0.70219058  0.01042676  0.60302877     0.33600
H2924       H  0.67776492  0.97680086  0.61289224     0.30300
H2925       H  0.63059826  0.88369738  0.61395147     0.33600
H2926       H  0.64826598  0.92030576  0.60275065     0.30300
H2927       H  0.76311003  0.87551339  0.67975665     0.38200
H2928       H  0.78146105  0.91231098  0.66937677     0.33600
C2929       C  0.75375094  0.50436079  0.05855485    -0.20100
C2930       C  0.77623255  0.51964315  0.07427891     0.36100
C2931       C  0.76122579  0.53359843  0.09333561    -0.26100
C2932       C  0.72421805  0.53402135  0.09640152     0.02500
C2933       C  0.70165958  0.52076118  0.08018149     0.27400
C2934       C  0.71665155  0.50586011  0.06145322    -0.25200
N2935       N  0.81402560  0.52129127  0.07070603    -0.82600
H2936       H  0.77833257  0.54437034  0.10579609     0.13200
C2937       C  0.70926598  0.54711126  0.11703150     0.02500
N2938       N  0.66365650  0.52237780  0.08289298    -0.81200
H2939       H  0.73184644  0.94683073  0.07336579     0.18000
C2940       C  0.69542400  0.58176831  0.11833103    -0.26000
C2941       C  0.68041220  0.59456737  0.13770014     0.36000
C2942       C  0.67900196  0.57201730  0.15584251    -0.20000
C2943       C  0.69248942  0.53722982  0.15439950    -0.25300
C2944       C  0.70778680  0.52457813  0.13516405     0.27400
H2945       H  0.69641712  0.59877110  0.10421963     0.13200
N2946       N  0.66645181  0.63014831  0.13902654    -0.82600
H2947       H  0.69182002  0.52018251  0.16850839     0.18000
N2948       N  0.76404230  0.06625422  0.12805339    -0.81200
H2949       H  0.66952069  0.64326281  0.12425250     0.33600
H2950       H  0.63905508  0.62816446  0.14184278     0.38100
H2951       H  0.77641696  0.08128334  0.14010701     0.33600
H2952       H  0.77521977  0.04076008  0.12870130     0.30300
H2953       H  0.65080290  0.51201659  0.06931434     0.33600
H2954       H  0.65684620  0.50592393  0.09586747     0.30300
H2955       H  0.74605233  0.07575566  0.04288542     0.38200
H2956       H  0.82672427  0.53338965  0.08379591     0.33600
C2957       C  0.62523839  0.62673683  0.37640150    -0.20100
C2958       C  0.60520646  0.60513353  0.39063684     0.36100
C2959       C  0.59447366  0.61876542  0.41067638    -0.26100
C2960       C  0.60315420  0.65364900  0.41684453     0.02500
C2961       C  0.62413090  0.67492426  0.40301119     0.27400
C2962       C  0.63515698  0.66113958  0.38304600    -0.25200
N2963       N  0.59595633  0.56926840  0.38502398    -0.82600
H2964       H  0.57906155  0.60202710  0.42146873     0.13200
C2965       C  0.58949416  0.66774749  0.43762583     0.02500
N2966       N  0.63345774  0.71072936  0.40904976    -0.81200
H2967       H  0.65066368  0.67793015  0.37235684     0.18000
C2968       C  0.61339978  0.68229373  0.45258037    -0.26000
C2969       C  0.60140239  0.69758951  0.47188890     0.36000
C2970       C  0.56459839  0.69604957  0.47706257    -0.20000
C2971       C  0.54085683  0.68056717  0.46231943    -0.25300
C2972       C  0.55273948  0.66744299  0.44237307     0.27400
H2973       H  0.64166505  0.68255937  0.44897842     0.13200
N2974       N  0.62722867  0.71490822  0.48545211    -0.82600
H2975       H  0.51276595  0.67928247  0.46627426     0.18000
N2976       N  0.52761832  0.65428115  0.42680528    -0.81200
H2977       H  0.63911493  0.73515893  0.47634805     0.33600
H2978       H  0.61531646  0.72772804  0.49853593     0.38100
H2979       H  0.50163277  0.65608725  0.43280701     0.33600
H2980       H  0.52885610  0.67102421  0.41333923     0.30300
H2981       H  0.64928896  0.72263234  0.39716540     0.33600
H2982       H  0.60990842  0.72553192  0.40991629     0.30300
H2983       H  0.56820963  0.56700216  0.38544146     0.38200
H2984       H  0.60641396  0.55227963  0.39676915     0.33600
C2985       C  0.80340447  0.00182332  0.47748390    -0.20100
C2986       C  0.84053101  0.99890332  0.47407589     0.36100
C2987       C  0.86384068  0.51949674  0.45574841    -0.26100
C2988       C  0.84185062  0.53403094  0.43983677     0.02500
C2989       C  0.80453097  0.53216308  0.44224793     0.27400
C2990       C  0.79002124  0.51776545  0.46131858    -0.25200
N2991       N  0.86239214  0.98078778  0.48958386    -0.82600
H2992       H  0.89244425  0.51980195  0.45336225     0.13200
C2993       C  0.85849936  0.54725346  0.41970089     0.02500
N2994       N  0.78160087  0.54318240  0.42494279    -0.81200
H2995       H  0.76141042  0.51756400  0.46355444     0.18000
C2996       C  0.87021940  0.52217266  0.40456323    -0.26000
C2997       C  0.88575907  0.53280966  0.38499018     0.36000
C2998       C  0.88971713  0.56957033  0.38046347    -0.20000
C2999       C  0.87892574  0.59472700  0.39597743    -0.25300
C3000       C  0.86382482  0.58388617  0.41576956     0.27400
H3001       H  0.85346450  0.98991757  0.40590379     0.13200
N3002       N  0.89623015  0.50633997  0.36940475    -0.82600
H3003       H  0.88222388  0.62285738  0.39259616     0.18000
N3004       N  0.85493424  0.60973655  0.43206728    -0.81200
H3005       H  0.87596440  0.97668345  0.37244585     0.33600
H3006       H  0.87943969  0.50888385  0.35605789     0.38100
H3007       H  0.86156007  0.63539276  0.42684666     0.33600
H3008       H  0.82738172  0.60950749  0.43427044     0.30300
H3009       H  0.75492703  0.53854567  0.42894659     0.33600
H3010       H  0.78427539  0.57065928  0.42298954     0.30300
H3011       H  0.85437300  0.95411405  0.48989570     0.38200
H3012       H  0.88906701  0.98094729  0.48469663     0.33600
C3013       C  0.62297469  0.79984957  0.16035745    -0.20100
C3014       C  0.58652544  0.79482472  0.15566739     0.36100
C3015       C  0.57652277  0.78251987  0.13511642    -0.26100
C3016       C  0.60212944  0.77570824  0.11913605     0.02500
C3017       C  0.63843415  0.78174836  0.12353402     0.27400
C3018       C  0.64856794  0.79315801  0.14427149    -0.25200
N3019       N  0.55988085  0.80178239  0.17185216    -0.82600
H3020       H  0.54864099  0.77810921  0.13151013     0.13200
C3021       C  0.59025255  0.76258712  0.09779995     0.02500
N3022       N  0.66462682  0.77756445  0.10673460    -0.81200
H3023       H  0.67646680  0.79770863  0.14775264     0.18000
C3024       C  0.57784341  0.78703569  0.08249272    -0.26000
C3025       C  0.56419722  0.77544965  0.06254377     0.36000
C3026       C  0.56345510  0.73860415  0.05775416    -0.20000
C3027       C  0.57700452  0.71435106  0.07293744    -0.25300
C3028       C  0.58969399  0.72587830  0.09308344     0.27400
H3029       H  0.57814225  0.81520145  0.08635364     0.13200
N3030       N  0.55051265  0.80087514  0.04734552    -0.82600
H3031       H  0.57711700  0.68617514  0.06918098     0.18000
N3032       N  0.60067723  0.70041363  0.10906611    -0.81200
H3033       H  0.55322761  0.82681509  0.05329674     0.33600
H3034       H  0.52321715  0.79620317  0.04571205     0.38100
H3035       H  0.59739397  0.67442635  0.10330812     0.33600
H3036       H  0.62790819  0.70378661  0.11173814     0.30300
H3037       H  0.68996033  0.78414124  0.11245112     0.33600
H3038       H  0.66557393  0.75068399  0.10242365     0.30300
H3039       H  0.56366755  0.78356308  0.18438443     0.38200
H3040       H  0.53438103  0.79710331  0.16572836     0.33600
C3041       C  0.94848588  0.62767613  0.16017668    -0.20100
C3042       C  0.96460598  0.60301314  0.14582647     0.36100
C3043       C  0.97402037  0.61400568  0.12494749    -0.26100
C3044       C  0.96727338  0.64876354  0.11794610     0.02500
C3045       C  0.95080180  0.67330803  0.13199727     0.27400
C3046       C  0.94149828  0.66249833  0.15297191    -0.25200
N3047       N  0.97069039  0.56671290  0.15222772    -0.82600
H3048       H  0.98643821  0.59527348  0.11392869     0.13200
C3049       C  0.97886543  0.65943340  0.09607482     0.02500
N3050       N  0.94399203  0.70915934  0.12496243    -0.81200
H3051       H  0.92911782  0.68151394  0.16381554     0.18000
C3052       C  0.95352976  0.67086051  0.08100497    -0.26000
C3053       C  0.96417225  0.68381554  0.06076955     0.36000
C3054       C  0.00068380  0.68501938  0.05546929    -0.20000
C3055       C  0.51095858  0.64959469  0.06388265    -0.25300
C3056       C  0.49886362  0.63659156  0.08382951     0.27400
H3057       H  0.92549367  0.67065007  0.08521537     0.13200
N3058       N  0.93803476  0.69711243  0.04604292    -0.82600
H3059       H  0.52623893  0.63246278  0.05323670     0.18000
N3060       N  0.50642975  0.60059505  0.09024522    -0.81200
H3061       H  0.92388206  0.71749170  0.05375936     0.33600
H3062       H  0.92020337  0.67648156  0.04265619     0.38100
H3063       H  0.52056313  0.58727206  0.07811463     0.33600
H3064       H  0.52317388  0.60172891  0.10368391     0.30300
H3065       H  0.93160897  0.72385141  0.13721081     0.33600
H3066       H  0.96857858  0.72134265  0.12201361     0.30300
H3067       H  0.94580411  0.55475275  0.15445898     0.38200
H3068       H  0.98340463  0.55244463  0.13991152     0.33600
C3069       C  0.68357086  0.86886679  0.37965653    -0.20100
C3070       C  0.71631125  0.88714177  0.38112208     0.36100
C3071       C  0.72689309  0.90156628  0.40099996    -0.26100
C3072       C  0.70598311  0.89737556  0.41963320     0.02500
C3073       C  0.67315274  0.87903586  0.41817427     0.27400
C3074       C  0.66200134  0.86545109  0.39805667    -0.25200
N3075       N  0.73813029  0.89209409  0.36223433    -0.82600
H3076       H  0.75164639  0.91632220  0.40197756     0.13200
C3077       C  0.71895379  0.91301822  0.44029912     0.02500
N3078       N  0.65153934  0.87394039  0.43711324    -0.81200
H3079       H  0.63673959  0.85165844  0.39677248     0.18000
C3080       C  0.69738196  0.93719122  0.45170164    -0.26000
C3081       C  0.70974114  0.95408225  0.47053379     0.36000
C3082       C  0.74463656  0.94729527  0.47778193    -0.20000
C3083       C  0.76613898  0.92301363  0.46655092    -0.25300
C3084       C  0.75348757  0.90537906  0.44806875     0.27400
H3085       H  0.67101157  0.94328803  0.44570867     0.13200
N3086       N  0.68707532  0.97808447  0.48235155    -0.82600
H3087       H  0.79263260  0.91732185  0.47251401     0.18000
N3088       N  0.77539661  0.87944884  0.43726722    -0.81200
H3089       H  0.66214948  0.98002030  0.47497100     0.33600
H3090       H  0.69850854  0.00344076  0.48166468     0.38100
H3091       H  0.79996043  0.87694020  0.44499673     0.33600
H3092       H  0.76266231  0.85475620  0.43862115     0.30300
H3093       H  0.62827933  0.86001785  0.43327582     0.33600
H3094       H  0.66587075  0.85783545  0.44775750     0.30300
H3095       H  0.74806424  0.86716080  0.35771793     0.38200
H3096       H  0.76032177  0.90781427  0.36583771     0.33600
C3097       C  0.80294089  0.93732426  0.06061572    -0.20100
C3098       C  0.79921895  0.90068397  0.06503752     0.36100
C3099       C  0.81521785  0.88592198  0.08343231    -0.26100
C3100       C  0.83462319  0.90715895  0.09791517     0.02500
C3101       C  0.83757874  0.94413952  0.09385939     0.27400
C3102       C  0.82196228  0.95876123  0.07516927    -0.25200
N3103       N  0.77882163  0.87841338  0.05093207    -0.82600
H3104       H  0.81264274  0.85757397  0.08633213     0.13200
C3105       C  0.85145004  0.89031328  0.11724253     0.02500
N3106       N  0.85626628  0.96671177  0.10877598    -0.81200
H3107       H  0.82486441  0.98693759  0.07182295     0.18000
C3108       C  0.88808791  0.89475615  0.12101145    -0.26000
C3109       C  0.90461755  0.88013912  0.13940415     0.36000
C3110       C  0.88410912  0.86026623  0.15435723    -0.20000
C3111       C  0.84777959  0.85461058  0.15000568    -0.25300
C3112       C  0.83118401  0.86979915  0.13189628     0.27400
H3113       H  0.90384834  0.90987687  0.10955908     0.13200
N3114       N  0.94204219  0.88561414  0.14294447    -0.82600
H3115       H  0.83163567  0.83974116  0.16137389     0.18000
N3116       N  0.79350823  0.86545352  0.12874258    -0.81200
H3117       H  0.95309202  0.90110413  0.13060850     0.33600
H3118       H  0.95447091  0.86072374  0.14213755     0.38100
H3119       H  0.78245988  0.84960745  0.14091175     0.33600
H3120       H  0.78173856  0.89059269  0.13017956     0.30300
H3121       H  0.85611918  0.99311298  0.10343491     0.33600
H3122       H  0.84224886  0.96629627  0.12339076     0.30300
H3123       H  0.79537724  0.85796536  0.04534670     0.38200
H3124       H  0.75828781  0.86687154  0.05995995     0.33600
C3125       C  0.50884133  0.75222791  0.47828928    -0.20100
C3126       C  0.96953114  0.75062181  0.47403246     0.36100
C3127       C  0.95843646  0.76258739  0.45364872    -0.26100
C3128       C  0.98259273  0.77877250  0.43939116     0.02500
C3129       C  0.51931810  0.77949393  0.44317723     0.27400
C3130       C  0.53174618  0.76851729  0.46332541    -0.25200
N3131       N  0.94504492  0.73242937  0.48810604    -0.82600
H3132       H  0.93119170  0.75829438  0.44854414     0.13200
C3133       C  0.97086128  0.78760721  0.41729939     0.02500
N3134       N  0.54446498  0.79334451  0.42789836    -0.81200
H3135       H  0.55976240  0.77153848  0.46706181     0.18000
C3136       C  0.96764436  0.82332940  0.41111908    -0.26000
C3137       C  0.95728003  0.83243199  0.39006053     0.36000
C3138       C  0.95014476  0.80510356  0.37494032    -0.20000
C3139       C  0.95269144  0.76935028  0.38136166    -0.25300
C3140       C  0.96316746  0.76045203  0.40237208     0.27400
H3141       H  0.97299746  0.84410830  0.42282732     0.13200
N3142       N  0.95319615  0.86923258  0.38414715    -0.82600
H3143       H  0.94709843  0.74821689  0.36992558     0.18000
N3144       N  0.96661121  0.72381458  0.40845368    -0.81200
H3145       H  0.95961024  0.88588594  0.39710333     0.33600
H3146       H  0.92624317  0.87349618  0.38082742     0.38100
H3147       H  0.94197805  0.71141143  0.40618073     0.33600
H3148       H  0.98502053  0.71184508  0.39803190     0.30300
H3149       H  0.53723375  0.81937208  0.42393379     0.33600
H3150       H  0.54345945  0.77767969  0.41394006     0.30300
H3151       H  0.95397711  0.70619771  0.48981047     0.38200
H3152       H  0.91981233  0.73097545  0.48108935     0.33600
loop_ 
_geom_bond_atom_site_label_1 
_geom_bond_atom_site_label_2 
_geom_bond_distance 
_geom_bond_site_symmetry_2 
_ccdc_geom_bond_type 
C1            N2   1.356       .  A
C1            N6   1.362       .  A
C1          C774   1.481       .  S
N2            C3   1.353       .  A
C3            N4   1.355       .  A
C3           C25   1.458       .  S
N4            C5   1.357       .  A
C5            N6   1.361       .  A
C5          C132   1.465       .  S
C7            N8   1.361       .  A
C7           N12   1.365       .  A
C7          C746   1.485       .  S
N8            C9   1.356       .  A
C9           N10   1.353       .  A
C9           C55   1.460       .  S
N10          C11   1.355       .  A
C11          N12   1.362       .  A
C11         C102   1.468       .  S
C13          N14   1.360       .  A
C13          N18   1.361       .  A
C13         C705   1.477       .  S
N14          C15   1.357       .  A
C15          N16   1.357       .  A
C15          C75   1.466       .  S
N16          C17   1.358       .  A
C17          N18   1.361       .  A
C17         C142   1.468       .  S
C19          N20   1.355       .  A
C19          N24   1.355       .  A
C19         C677   1.472       .  S
N20          C21   1.359       .  A
C21          N22   1.362       .  A
C21         C152   1.467       .  S
N22          C23   1.361       .  A
C23          N24   1.356       .  A
C23          C65   1.466       .  S
C25        N1619   1.348       .  A
C25          C62   1.455       .  S
N26          N43   1.325       .  A
N26        N1624   1.321       .  A
N26         Co63   2.085   1_655  S
C27          N52   1.337       .  A
C27        C1641   1.455       .  S
C27          H72   1.082   1_655  S
H28          C69   1.082   1_455  S
C29          N53   1.338       .  A
C29          C33   1.457       .  S
C29          H58   1.082       .  S
Co30         N48   2.081       .  S
Co30         N38   2.074       .  S
Co30        N858   2.067       .  S
Co30        N834   2.082       .  S
Co30      Cl1650   2.426       .  S
N31          C69   1.345       .  A
N31        N1614   1.319       .  A
N31         Co32   2.092   1_655  S
Co32         N35   2.077       .  S
Co32        N840   2.071   1_455  S
Co32        N827   2.089       .  S
Co32        Cl74   2.473       .  S
C33          N71   1.349       .  A
C33          C80   1.464       .  S
N34          N41   1.320       .  A
N34          N64   1.324       .  A
N34         Co67   2.083       .  S
N35          N53   1.322       .  A
N35          N71   1.326       .  A
N36          C65   1.350       .  A
N36          N46   1.327       .  A
H37          C62   1.082       .  S
N38          N59   1.321       .  A
N38        N1607   1.319       .  A
N39          N57   1.319       .  A
N39          N44   1.328       .  A
N39        Co820   2.093   1_545  S
C40          N44   1.353       .  A
C40          C68   1.453       .  S
C40         C100   1.466       .  S
N41          C56   1.344       .  A
N41         Co63   2.090       .  S
C42          N70   1.337       .  A
C42          C45   1.453       .  S
C42          H76   1.082       .  S
N43        C1601   1.350       .  A
C45        N1642   1.350       .  A
C45          C88   1.461       .  S
N46        N1628   1.320       .  A
N46        Co818   2.091   1_545  S
N47          C73   1.341       .  A
N47          N49   1.321       .  A
N47        Co851   2.080   1_545  S
N48          C62   1.339       .  A
N48        N1602   1.321       .  A
N49          N77   1.324       .  A
N49        Co855   2.089   1_545  S
H50          C73   1.082       .  S
H51          C68   1.082       .  S
N52        N1622   1.321       .  A
N52        Co820   2.075   1_645  S
N53         Co67   2.093       .  S
N54          N66   1.327       .  A
N54        N1646   1.320       .  A
N54        Co851   2.086   1_645  S
C55          N59   1.345       .  A
C55        C1645   1.461       .  S
C56          C75   1.462       .  S
C56          H60   1.082       .  S
N57          C68   1.336       .  A
N57        Co855   2.074   1_545  S
C61          N77   1.348       .  A
C61          C73   1.458       .  S
C61          C94   1.465       .  S
Co63        N835   2.077       .  S
Co63        N842   2.087   1_455  S
Co63        Cl74   2.473       .  S
N64          C75   1.347       .  A
C65        C1603   1.456       .  S
N66        C1621   1.350       .  A
Co67        N837   2.103       .  S
Co67        N845   2.085       .  S
Co67        Cl74   2.430       .  S
C69        C1631   1.463       .  S
N70        N1630   1.320       .  A
N70        Co818   2.076   1_545  S
Cl74      Co1606   2.431   1_455  S
C78          N79   1.363       .  A
C78          N83   1.362       .  A
C78         C649   1.490       .  S
N79          C80   1.359       .  A
C80          N81   1.353       .  A
N81          C82   1.352       .  A
C82          N83   1.358       .  A
C82         C122   1.462       .  S
C84          N85   1.363       .  A
C84          N89   1.361       .  A
C84         C634   1.485       .  S
N85          C86   1.359       .  A
C86          N87   1.354       .  A
C86         C110   1.462       .  S
N87          C88   1.353       .  A
C88          N89   1.356       .  A
C90          N91   1.363       .  A
C90          N95   1.359       .  A
C90         C593   1.488       .  S
N91          C92   1.361       .  A
C92          N93   1.358       .  A
C92         C117   1.470       .  S
N93          C94   1.356       .  A
C94          N95   1.355       .  A
C96          N97   1.359       .  A
C96         N101   1.363       .  A
C96         C578   1.482       .  S
N97          C98   1.353       .  A
C98          N99   1.355       .  A
C98         C138   1.462       .  S
N99         C100   1.358       .  A
C100        N101   1.360       .  A
C102        N120   1.352       .  A
C102        C139   1.454       .  S
N103        N120   1.329       .  A
N103        N125   1.319       .  A
N103       Co140   2.090       .  S
C104        N129   1.344       .  A
C104        C142   1.460       .  S
C104        H149   1.081       .  S
H105        C146   1.082       .  S
C106        N130   1.336       .  A
C106        C110   1.452       .  S
C106        H135   1.082       .  S
Co107       N125   2.079       .  S
Co107       N115   2.094       .  S
Co107       N147   2.095       .  S
Co107       N123   2.083       .  S
Co107      Cl151   2.428       .  S
N108        C146   1.342       .  A
N108        N115   1.322       .  A
N108       Co109   2.082       .  S
Co109       N112   2.089       .  S
Co109       N129   2.089       .  S
Co109       N116   2.089       .  S
Co109      Cl151   2.475       .  S
C110        N148   1.351       .  A
N111        N118   1.322       .  A
N111        N141   1.328       .  A
N111       Co144   2.101       .  S
N112        N130   1.319       .  A
N112        N148   1.328       .  A
N113        C142   1.348       .  A
N113        N123   1.324       .  A
H114        C139   1.082       .  S
N115        N136   1.324       .  A
N116        N134   1.322       .  A
N116        N121   1.327       .  A
C117        N121   1.351       .  A
C117        C145   1.459       .  S
N118        C133   1.338       .  A
N118       Co140   2.076       .  S
C119        N147   1.340       .  A
C119        C122   1.460       .  S
C119        H153   1.082       .  S
C122        N143   1.346       .  A
N123        N129   1.320       .  A
N124        C150   1.343       .  A
N124        N126   1.319       .  A
N124       Co140   2.088       .  S
N125        C139   1.337       .  A
N126        N154   1.323       .  A
N126       Co144   2.075       .  S
H127        C150   1.082       .  S
H128        C145   1.082       .  S
N130       Co144   2.070       .  S
N131        N143   1.324       .  A
N131        N147   1.322       .  A
N131       Co140   2.072       .  S
C132        N136   1.349       .  A
C132        C146   1.457       .  S
C133        C152   1.455       .  S
C133        H137   1.082       .  S
N134        C145   1.341       .  A
N134       Co144   2.095       .  S
C138        N154   1.347       .  A
C138        C150   1.461       .  S
Co140      Cl151   2.473       .  S
N141        C152   1.352       .  A
Co144      Cl151   2.432       .  S
C155        C718   1.487       .  S
C155        C156   1.422       .  A
C155        C160   1.410       .  A
C156        C621   1.496       .  S
C156        C157   1.405       .  A
C157        H950   1.084       .  S
C157        C158   1.399       .  A
C158        C509   1.478       .  S
C158        C159   1.413       .  A
C159        C550   1.497       .  S
C159        C160   1.403       .  A
C160        H161   1.084       .  S
H162        C945   1.084   1_545  S
C163       C2266   1.478       .  S
C163        C164   1.414       .  A
C163       C1744   1.400       .  A
C164        C662   1.488       .  S
C164        C165   1.401       .  A
C165        H170   1.084       .  S
C165        C166   1.405   1_554  A
C166        C453   1.482       .  S
C166        C167   1.416       .  A
C167       C2070   1.484   1_455  S
C167       C1744   1.402   1_556  A
C168        H169   1.084       .  S
C168       C1739   1.401       .  A
C168       C1743   1.408   1_554  A
C171        C606   1.490       .  S
C171        C172   1.413       .  A
C171        C176   1.400       .  A
C172        C761   1.481       .  S
C172        C173   1.402       .  A
C173       H1754   1.084   1_455  S
C173        C174   1.406       .  A
C174        C425   1.493       .  S
C174        C175   1.420       .  A
C175        C410   1.484       .  S
C175        C176   1.406       .  A
C176        H177   1.085       .  S
H178       C1749   1.084       .  S
C179       C1353   1.487       .  S
C179        C180   1.424       .  A
C179        C184   1.405       .  A
C180        C733   1.495       .  S
C180        C181   1.407       .  A
C181        H186   1.084       .  S
C181        C182   1.400       .  A
C182        C369   1.480   1_554  S
C182        C183   1.410   1_554  A
C183        C341   1.483       .  S
C183        C184   1.397   1_556  A
C184        H973   1.085       .  S
H185        C972   1.085   1_545  S
C187        N188   1.357       .  A
C187        N192   1.358       .  A
C187        C382   1.480       .  S
N188        C189   1.356       .  A
C189        N190   1.356       .  A
C189        C223   1.460       .  S
N190        C191   1.356       .  A
C191        N192   1.358       .  A
C191        C318   1.461       .  S
C193        N194   1.362       .  A
C193        N198   1.363       .  A
C193        C481   1.480       .  S
N194        C195   1.357       .  A
C195        N196   1.355       .  A
C195        C243   1.467       .  S
N196        C197   1.356       .  A
C197        N198   1.360       .  A
C197        C296   1.468       .  S
C199        N200   1.361       .  A
C199        N204   1.360       .  A
C199        C354   1.483       .  S
N200        C201   1.360       .  A
C201        N202   1.358       .  A
C201        C259   1.471       .  S
N202        C203   1.358       .  A
C203        N204   1.360       .  A
C203        C303   1.469       .  S
C205        N206   1.361       .  A
C205        N210   1.358       .  A
C205        C466   1.477       .  S
N206        C207   1.360       .  A
C207        N208   1.359       .  A
C207        C328   1.467       .  S
N208        C209   1.358       .  A
C209        N210   1.354       .  A
C209        C273   1.464       .  S
C211        N212   1.362       .  A
C211        N216   1.362       .  A
C211        C397   1.487       .  S
N212        C213   1.358       .  A
C213        N214   1.355       .  A
C213        C238   1.462       .  S
N214        C215   1.355       .  A
C215        N216   1.358       .  A
C215        C324   1.463       .  S
C217        N218   1.356       .  A
C217        N222   1.358       .  A
C217        C522   1.478       .  S
N218        C219   1.356       .  A
C219        N220   1.360       .  A
C219        C338   1.468       .  S
N220        C221   1.361       .  A
C221        N222   1.360       .  A
C221        C263   1.470       .  S
C223        N241   1.347       .  A
C223        C260   1.457       .  S
N224        N241   1.323       .  A
N224        N246   1.322       .  A
N224       Co261   2.076       .  S
C225        N250   1.340       .  A
C225        C263   1.458       .  S
C225        H270   1.082       .  S
H226        C267   1.081       .  S
C227        N251   1.340       .  A
C227        C231   1.459       .  S
C227        H256   1.082       .  S
Co228       N246   2.090       .  S
Co228       N236   2.079       .  S
Co228       N268   2.074       .  S
Co228       N244   2.096       .  S
Co228      Cl272   2.429       .  S
N229        C267   1.343       .  A
N229        N236   1.319       .  A
N229       Co230   2.083       .  S
Co230       N233   2.089       .  S
Co230       N250   2.084       .  S
Co230       N237   2.086       .  S
Co230      Cl272   2.474       .  S
C231        N269   1.351       .  A
C231        C286   1.473       .  S
N232        N239   1.319       .  A
N232        N262   1.322       .  A
N232       Co265   2.070       .  S
N233        N251   1.322       .  A
N233        N269   1.328       .  A
N234        C263   1.351       .  A
N234        N244   1.327       .  A
H235        C260   1.082       .  S
N236        N257   1.322       .  A
N237        N255   1.319       .  A
N237        N242   1.326       .  A
C238        N242   1.350       .  A
C238        C266   1.454       .  S
N239        C254   1.346       .  A
N239       Co261   2.099       .  S
C240        N268   1.336       .  A
C240        C243   1.452       .  S
C240        H274   1.082       .  S
C243        N264   1.354       .  A
N244        N250   1.321       .  A
N245        C271   1.340       .  A
N245        N247   1.321       .  A
N245       Co261   2.076       .  S
N246        C260   1.340       .  A
N247        N275   1.327       .  A
N247       Co265   2.106       .  S
H248        C271   1.082       .  S
H249        C266   1.082       .  S
N251       Co265   2.097       .  S
N252        N264   1.329       .  A
N252        N268   1.320       .  A
N252       Co261   2.098       .  S
C253        N257   1.347       .  A
C253        C267   1.459       .  S
C253        C280   1.461       .  S
C254        C273   1.466       .  S
C254        H258   1.082       .  S
N255        C266   1.338       .  A
N255       Co265   2.074       .  S
C259        N275   1.353       .  A
C259        C271   1.456       .  S
Co261      Cl272   2.476       .  S
N262        C273   1.344       .  A
Co265      Cl272   2.428       .  S
C276        N277   1.363       .  A
C276        N281   1.363       .  A
C276        C438   1.496       .  S
N277        C278   1.358       .  A
C278        N279   1.353       .  A
C278        C288   1.460       .  S
N279        C280   1.353       .  A
C280        N281   1.358       .  A
C282        N283   1.363       .  A
C282        N287   1.364       .  A
C282        C537   1.485       .  S
N283        C284   1.358       .  A
C284        N285   1.356       .  A
C284        C308   1.469       .  S
N285        C286   1.355       .  A
C286        N287   1.360       .  A
C288        N306   1.350       .  A
C288        C325   1.453       .  S
N289        N306   1.326       .  A
N289        N311   1.320       .  A
N289      Co1902   2.087       .  S
C290        N315   1.344       .  A
C290        C328   1.461       .  S
C290        H335   1.082       .  S
H291        C332   1.082       .  S
C292        N316   1.338       .  A
C292        C296   1.455       .  S
C292        H321   1.082       .  S
Co293       N333   2.085       .  S
Co293       N309   2.086       .  S
Co293      N1887   2.085   1_455  S
Co293      N1877   2.088   1_455  S
Co293      Cl337   2.427       .  S
N294        C332   1.338       .  A
N294        N301   1.321       .  A
N294      Co1871   2.068       .  S
Co295       N315   2.085       .  S
Co295      N1870   2.074   1_455  S
Co295      N2662   2.088   1_455  S
Co295      N1090   2.077       .  S
Co295      Cl337   2.473       .  S
C296        N334   1.352       .  A
N297        N304   1.322       .  A
N297        N327   1.327       .  A
N297      Co1906   2.096       .  S
N298        N316   1.319       .  A
N298        N334   1.329       .  A
N298      Co2659   2.092   1_545  S
N299        C328   1.348       .  A
N299        N309   1.324       .  A
H300        C325   1.082       .  S
N301        N322   1.325       .  A
N301      Co1869   2.097       .  S
N302        N320   1.322       .  A
N302        N307   1.325       .  A
N302      Co1083   2.081   1_545  S
C303        N307   1.348       .  A
C303        C331   1.461       .  S
N304        C319   1.339       .  A
N304      Co2690   2.082   1_545  S
C305        N333   1.337       .  A
C305        C308   1.455       .  S
C305        H339   1.081       .  S
C308        N329   1.352       .  A
N309        N315   1.319       .  A
N310        C336   1.344       .  A
N310        N312   1.320       .  A
N310      Co1114   2.088   1_545  S
N311        C325   1.336       .  A
N311      Co1869   2.072       .  S
N312        N340   1.323       .  A
N312       Co330   2.078       .  S
H313        C336   1.082       .  S
H314        C331   1.082       .  S
N316      Co1906   2.077       .  S
N317        N329   1.328       .  A
N317        N333   1.322       .  A
N317       Co326   2.091       .  S
C318        N322   1.350       .  A
C318        C332   1.453       .  S
C319        C338   1.458       .  S
C319        H323   1.082   1_545  S
N320        C331   1.343       .  A
N320       Co330   2.103       .  S
C324        N340   1.347       .  A
C324        C336   1.460       .  S
Co326      N1865   2.092   1_455  S
Co326      N2668   2.084   1_455  S
Co326      N1098   2.083       .  S
Co326      Cl337   2.473       .  S
N327        C338   1.350       .  A
Co330      N1873   2.104   1_455  S
Co330      N1892   2.073   1_455  S
Co330     Cl1125   2.431   1_545  S
Cl337     Co1118   2.430       .  S
C341        C342   1.407       .  A
C341       C1134   1.402       .  A
C342       C1131   1.402       .  A
C342        N347   1.431       .  S
C343        H348   1.084       .  S
C343        C344   1.404       .  A
C343       C1130   1.402       .  A
C344        C349   1.484       .  S
C344        C345   1.415   1_545  A
C345        C346   1.400       .  A
C345        N350   1.432       .  S
C346        H351   1.084       .  S
C346       C1129   1.402       .  A
N347        H367   1.045       .  S
N347        H368   1.046       .  S
C349        C352   1.403       .  A
C349        C356   1.410       .  A
N350        H365   1.045       .  S
N350        H366   1.044   1_565  S
C352       H1145   1.084   1_545  S
C352        C353   1.408       .  A
C353        C354   1.413       .  A
C353        N358   1.438   1_545  S
C354        C355   1.404       .  A
C355        H359   1.084       .  S
C355        C356   1.406       .  A
C356        N360   1.438       .  S
H357       C1140   1.084       .  S
N358        H362   1.046       .  S
N358       H1149   1.046       .  S
N360        H363   1.047       .  S
N360        H364   1.045       .  S
H361       N1146   1.046       .  S
C369        C370   1.413       .  A
C369        C374   1.402       .  A
C370        C371   1.397       .  A
C370        N375   1.433       .  S
C371        H376   1.084       .  S
C371        C372   1.403       .  A
C372        C377   1.480       .  S
C372        C373   1.411       .  A
C373        C374   1.403       .  A
C373        N378   1.438       .  S
C374        H379   1.084       .  S
N375       H1183   1.044   1_556  S
N375       H1184   1.045       .  S
C377        C380   1.401       .  A
C377        C384   1.411       .  A
N378        H393   1.045       .  S
N378        H394   1.046       .  S
C380        H385   1.084       .  S
C380        C381   1.401       .  A
C381        C382   1.412       .  A
C381        N386   1.432       .  S
C382        C383   1.405       .  A
C383        H387   1.084       .  S
C383        C384   1.405       .  A
C384        N388   1.438       .  S
N386        H389   1.046       .  S
N386        H390   1.045       .  S
N388        H391   1.044       .  S
N388        H392   1.047       .  S
H395       N1163   1.044       .  S
H396       N1163   1.045       .  S
C397        C398   1.411       .  A
C397        C402   1.408       .  A
C398        C399   1.404       .  A
C398        N403   1.432       .  S
C399        H404   1.084       .  S
C399        C400   1.402       .  A
C400        C405   1.483       .  S
C400        C401   1.410       .  A
C401        C402   1.407       .  A
C401        N406   1.438       .  S
C402        H407   1.083       .  S
N403        H423   1.046       .  S
N403        H424   1.046       .  S
C405        C408   1.404       .  A
C405        C412   1.407       .  A
N406        H421   1.046       .  S
N406        H422   1.046       .  S
C408        H413   1.084       .  S
C408        C409   1.407       .  A
C409        C410   1.412       .  A
C409        N414   1.437   1_455  S
C410        C411   1.403       .  A
C411        H415   1.084       .  S
C411        C412   1.400       .  A
C412        N416   1.432       .  S
N414       H1993   1.045       .  S
N414       H1994   1.046       .  S
N416        H419   1.046       .  S
N416        H420   1.045       .  S
H417       N1990   1.045       .  S
H418       N1990   1.046       .  S
C425        C430   1.406       .  A
C425       C2002   1.414   1_455  A
C426        C427   1.403       .  A
C426       C2001   1.414       .  A
C426        N431   1.439       .  S
C427        H432   1.084       .  S
C427        C428   1.402       .  A
C428        C433   1.489       .  S
C428       C2005   1.414       .  A
C429        C430   1.407       .  A
C429       C2004   1.410   1_455  A
C429        N434   1.438       .  S
C430        H435   1.083       .  S
N431        H451   1.045       .  S
N431        H452   1.046       .  S
C433        C436   1.403       .  A
C433        C440   1.408       .  A
N434        H449   1.046       .  S
N434        H450   1.044       .  S
C436        H441   1.084       .  S
C436        C437   1.404       .  A
C437        C438   1.417       .  A
C437        N442   1.432       .  S
C438        C439   1.410       .  A
C439        H443   1.083       .  S
C439        C440   1.405       .  A
C440        N444   1.432       .  S
N442        H445   1.045       .  S
N442        H446   1.046       .  S
N444        H447   1.046       .  S
N444        H448   1.045       .  S
C453        C454   1.410       .  A
C453        C458   1.402       .  A
C454        C455   1.405       .  A
C454       N2035   1.437   1_455  S
C455        H460   1.084       .  S
C455        C456   1.403       .  A
C456        C461   1.480       .  S
C456        C457   1.418       .  A
C457        C458   1.400       .  A
C457        N462   1.439       .  S
C458        H463   1.084       .  S
N459       C2030   1.437       .  S
N459        H479   1.045       .  S
N459        H480   1.045       .  S
C461        C464   1.404       .  A
C461        C468   1.405       .  A
N462        H477   1.046       .  S
N462        H478   1.042       .  S
C464        H469   1.084       .  S
C464        C465   1.409       .  A
C465        C466   1.411       .  A
C465        N470   1.437       .  S
C466        C467   1.405       .  A
C467        H471   1.084       .  S
C467        C468   1.400       .  A
C468        N472   1.433       .  S
N470        H473   1.046       .  S
N470        H474   1.046       .  S
N472        H475   1.046       .  S
N472        H476   1.045       .  S
C481        C482   1.411       .  A
C481        C486   1.405       .  A
C482        C483   1.410       .  A
C482        N487   1.437       .  S
C483        H488   1.084       .  S
C483        C484   1.404       .  A
C484        C489   1.481       .  S
C484        C485   1.408       .  A
C485        C486   1.404       .  A
C485        N490   1.439       .  S
C486        H491   1.084       .  S
N487        H507   1.045       .  S
N487        H508   1.046       .  S
C489        C492   1.403       .  A
C489        C496   1.408       .  A
N490        H505   1.046       .  S
N490        H506   1.044       .  S
C492       H2073   1.084       .  S
C492       C2069   1.408       .  A
C493       C2068   1.406       .  A
C493       C2070   1.411   1_455  A
C493        N498   1.437       .  S
C494       C1743   1.491       .  S
C494        C495   1.406       .  A
C494       C2069   1.413       .  A
C495        H499   1.084       .  S
C495        C496   1.405       .  A
C496        N500   1.438       .  S
H497       C2068   1.084       .  S
N498        H501   1.045       .  S
N498        H502   1.046       .  S
N500        H503   1.045       .  S
N500        H504   1.044       .  S
C509        C514   1.402       .  A
C509       C1298   1.409       .  A
C510        C511   1.407       .  A
C510       C1297   1.411   1_545  A
C510        N515   1.438       .  S
C511        H516   1.084       .  S
C511        C512   1.402       .  A
C512        C517   1.476       .  S
C512       C1301   1.408   1_545  A
C513        C514   1.400       .  A
C513       C1300   1.408       .  A
C513        N518   1.438       .  S
C514        H519   1.084       .  S
N515        H535   1.045       .  S
N515        H536   1.046       .  S
C517        C520   1.402       .  A
C517        C524   1.408       .  A
N518        H533   1.045       .  S
N518        H534   1.043       .  S
C520        H525   1.084       .  S
C520        C521   1.407       .  A
C521        C522   1.412       .  A
C521        N526   1.438       .  S
C522        C523   1.404       .  A
C523        H527   1.084       .  S
C523        C524   1.403       .  A
C524        N528   1.439       .  S
N526        H529   1.046       .  S
N526        H530   1.046       .  S
N528        H531   1.046       .  S
N528        H532   1.044       .  S
C537        C538   1.414       .  A
C537        C542   1.406       .  A
C538        C539   1.410       .  A
C538        N543   1.438       .  S
C539        H544   1.084       .  S
C539        C540   1.403       .  A
C540        C545   1.485       .  S
C540        C541   1.409       .  A
C541        C542   1.408       .  A
C541        N546   1.438       .  S
C542        H547   1.084       .  S
N543        H563   1.045       .  S
N543        H564   1.046       .  S
C545        C548   1.403       .  A
C545        C552   1.410       .  A
N546        H561   1.045       .  S
N546        H562   1.044       .  S
C548        H553   1.084       .  S
C548        C549   1.409       .  A
C549        C550   1.413       .  A
C549        N554   1.437       .  S
C550        C551   1.407       .  A
C551        H555   1.083       .  S
C551        C552   1.407       .  A
C552        N556   1.439       .  S
N554        H557   1.046       .  S
N554        H558   1.045       .  S
N556        H559   1.045       .  S
N556        H560   1.045       .  S
C565        C967   1.480   1_545  S
C565        C566   1.407       .  A
C565        C570   1.402   1_545  A
C566        C567   1.401       .  A
C566        N571   1.432       .  S
C567        H572   1.084       .  S
C567        C568   1.403       .  A
C568        C573   1.482       .  S
C568        C569   1.412   1_545  A
C569        C570   1.404       .  A
C569        N574   1.437       .  S
C570       H1363   1.084       .  S
N571        H592   1.046       .  S
N571       H1379   1.045       .  S
C573        C576   1.405       .  A
C573        C580   1.409       .  A
N574        H589   1.046       .  S
N574        H590   1.045       .  S
H575       C1358   1.084       .  S
C576        H581   1.084       .  S
C576        C577   1.404       .  A
C577        C578   1.409       .  A
C577        N582   1.432       .  S
C578        C579   1.407       .  A
C579        H583   1.083       .  S
C579        C580   1.402       .  A
C580       N1372   1.439       .  S
N582        H585   1.046       .  S
N582        H586   1.045       .  S
N584       C1368   1.439       .  S
N584        H587   1.045       .  S
N584        H588   1.045       .  S
H591       N1359   1.046       .  S
C593        C594   1.414       .  A
C593        C598   1.406       .  A
C594        C595   1.402       .  A
C594        N599   1.433       .  S
C595        H600   1.084       .  S
C595        C596   1.402       .  A
C596        C601   1.488       .  S
C596        C597   1.413       .  A
C597        C598   1.408       .  A
C597        N602   1.438       .  S
C598        H603   1.083       .  S
N599        H619   1.046       .  S
N599        H620   1.046       .  S
C601        C604   1.403       .  A
C601        C608   1.411       .  A
N602        H617   1.046       .  S
N602        H618   1.045       .  S
C604        H609   1.084       .  S
C604        C605   1.403       .  A
C605        C606   1.420       .  A
C605        N610   1.439       .  S
C606        C607   1.405       .  A
C607        H611   1.083       .  S
C607        C608   1.404       .  A
C608        N612   1.438       .  S
N610        H613   1.046       .  S
N610        H614   1.042       .  S
N612        H615   1.046   1_455  S
N612        H616   1.046       .  S
C621        C622   1.418       .  A
C621       C1414   1.405       .  A
C622       C1411   1.407       .  A
C622        N627   1.438       .  S
C623        H628   1.084       .  S
C623        C624   1.402       .  A
C623       C1410   1.405   1_545  A
C624        C629   1.483       .  S
C624        C625   1.412       .  A
C625        C626   1.407       .  A
C625        N630   1.438       .  S
C626        H631   1.083       .  S
C626       C1409   1.405   1_545  A
N627        H647   1.046       .  S
N627        H648   1.046       .  S
C629        C632   1.400       .  A
C629        C636   1.407       .  A
N630        H645   1.046       .  S
N630        H646   1.043       .  S
C632       H1425   1.084   1_545  S
C632        C633   1.406       .  A
C633        C634   1.418       .  A
C633        N638   1.438       .  S
C634        C635   1.405       .  A
C635        H639   1.084       .  S
C635        C636   1.405       .  A
C636        N640   1.432       .  S
H637       C1420   1.084       .  S
N638        H642   1.046       .  S
N638       H1429   1.046   1_545  S
N640        H643   1.046       .  S
N640        H644   1.045       .  S
H641       N1426   1.046       .  S
C649        C650   1.416       .  A
C649        C654   1.408       .  A
C650        C651   1.407       .  A
C650        N655   1.438       .  S
C651        H656   1.084       .  S
C651        C652   1.403       .  A
C652        C657   1.487       .  S
C652        C653   1.407       .  A
C653        C654   1.404       .  A
C653        N658   1.432       .  S
C654        H659   1.084       .  S
N655        H675   1.046       .  S
N655        H676   1.045       .  S
C657        C660   1.404       .  A
C657        C664   1.412       .  A
N658        H673   1.046       .  S
N658        H674   1.045       .  S
C660        H665   1.084       .  S
C660        C661   1.406       .  A
C661        C662   1.411       .  A
C661        N666   1.438       .  S
C662        C663   1.405       .  A
C663        H667   1.083       .  S
C663        C664   1.406       .  A
C664        N668   1.438       .  S
N666        H669   1.046       .  S
N666        H670   1.044       .  S
N668        H671   1.045       .  S
N668        H672   1.045       .  S
C677        C678   1.409       .  A
C677        C682   1.402       .  A
C678        C679   1.403       .  A
C678        N683   1.438       .  S
C679        H684   1.084       .  S
C679        C680   1.402       .  A
C680        C685   1.486       .  S
C680        C681   1.414       .  A
C681        C682   1.408       .  A
C681        N686   1.438       .  S
C682        H687   1.084       .  S
N683        H703   1.046       .  S
N683        H704   1.046       .  S
C685        C688   1.404       .  A
C685       C2268   1.413       .  A
N686        H701   1.046       .  S
N686        H702   1.046       .  S
C688        H693   1.084       .  S
C688        C689   1.405       .  A
C689        C690   1.408       .  A
C689        N694   1.437       .  S
C690       C1739   1.481       .  S
C690       C2267   1.401       .  A
C691        H695   1.084       .  S
C691        C692   1.405   1_455  A
C691       C2266   1.403       .  A
C692       C2261   1.410       .  A
C692        N696   1.438   1_655  S
N694        H697   1.045       .  S
N694        H698   1.046       .  S
N696        H699   1.045       .  S
N696        H700   1.044       .  S
C705        C706   1.411       .  A
C705        C710   1.404       .  A
C706        C707   1.402       .  A
C706        N711   1.438       .  S
C707        H712   1.084       .  S
C707        C708   1.399       .  A
C708        C713   1.482       .  S
C708        C709   1.412       .  A
C709        C710   1.413       .  A
C709        N714   1.437       .  S
C710        H715   1.084       .  S
N711        H731   1.046       .  S
N711        H732   1.045       .  S
C713        C716   1.400       .  A
C713        C720   1.410       .  A
N714        H729   1.046       .  S
N714        H730   1.045       .  S
C716        H721   1.084       .  S
C716        C717   1.406       .  A
C717        C718   1.413       .  A
C717        N722   1.438       .  S
C718        C719   1.404       .  A
C719        H723   1.084       .  S
C719        C720   1.408       .  A
C720        N724   1.437       .  S
N722        H725   1.046       .  S
N722        H726   1.045       .  S
N724        H727   1.045       .  S
N724        H728   1.046       .  S
C733        C734   1.414       .  A
C733        C738   1.407       .  A
C734        C735   1.409       .  A
C734        N739   1.437       .  S
C735        H740   1.084       .  S
C735        C736   1.403       .  A
C736        C741   1.482       .  S
C736        C737   1.408       .  A
C737        C738   1.404       .  A
C737        N742   1.439       .  S
C738        H743   1.084       .  S
N739        H759   1.045       .  S
N739        H760   1.045       .  S
C741        C744   1.404       .  A
C741        C748   1.408       .  A
N742        H757   1.046       .  S
N742        H758   1.044       .  S
C744        H749   1.084       .  S
C744        C745   1.410       .  A
C745        C746   1.411       .  A
C745        N750   1.437       .  S
C746        C747   1.407       .  A
C747        H751   1.084       .  S
C747        C748   1.406       .  A
C748        N752   1.439       .  S
N750        H753   1.045       .  S
N750        H754   1.046       .  S
N752        H755   1.046       .  S
N752        H756   1.044       .  S
C761        C766   1.403       .  A
C761       C2338   1.411   1_455  A
C762        C763   1.402       .  A
C762       C2337   1.409       .  A
C762        N767   1.438       .  S
C763        H768   1.084       .  S
C763        C764   1.402       .  A
C764        C769   1.479       .  S
C764       C2341   1.414       .  A
C765        C766   1.395       .  A
C765       C2340   1.412   1_455  A
C765        N770   1.433       .  S
C766        H771   1.084       .  S
N767        H787   1.046       .  S
N767        H788   1.045       .  S
C769        C772   1.399       .  A
C769        C776   1.408       .  A
N770        H785   1.044       .  S
N770        H786   1.045       .  S
C772        H777   1.083       .  S
C772        C773   1.404       .  A
C773        C774   1.417       .  A
C773        N778   1.438       .  S
C774        C775   1.403       .  A
C775        H779   1.084       .  S
C775        C776   1.402       .  A
C776        N780   1.432       .  S
N778        H781   1.046       .  S
N778        H782   1.045       .  S
N780        H783   1.045       .  S
N780        H784   1.046       .  S
C789        N790   1.357       .  A
C789        N794   1.360       .  A
C789       C1562   1.478       .  S
N790        C791   1.355       .  A
C791        N792   1.355       .  A
C791        C813   1.460       .  S
N792        C793   1.356       .  A
C793        N794   1.358       .  A
C793        C920   1.461       .  S
C795        N796   1.363       .  A
C795        N800   1.363       .  A
C795       C1534   1.490       .  S
N796        C797   1.358       .  A
C797        N798   1.354       .  A
C797        C843   1.463       .  S
N798        C799   1.354       .  A
C799        N800   1.357       .  A
C799        C890   1.463       .  S
C801        N802   1.360       .  A
C801        N806   1.363       .  A
C801       C1493   1.483       .  S
N802        C803   1.356       .  A
C803        N804   1.356       .  A
C803        C863   1.465       .  S
N804        C805   1.357       .  A
C805        N806   1.362       .  A
C805        C930   1.468       .  S
C807        N808   1.354       .  A
C807        N812   1.350       .  A
C807       C1465   1.460       .  S
N808        C809   1.358       .  A
C809        N810   1.362       .  A
C809        C940   1.468       .  S
N810        C811   1.363       .  A
C811        N812   1.354       .  A
C811        C853   1.461       .  S
C813       N2407   1.348       .  A
C813        C850   1.455       .  S
N814        N831   1.324       .  A
N814       N2412   1.322       .  A
N814       Co851   2.080   1_655  S
C815        N840   1.336       .  A
C815       C2429   1.454       .  S
C815        H860   1.082   1_655  S
H816        C857   1.082   1_455  S
C817        N841   1.337       .  A
C817        C821   1.456       .  S
C817        H846   1.082       .  S
Co818       N836   2.084       .  S
Co818       N826   2.082       .  S
Co818     Cl2438   2.429       .  S
N819        C857   1.345       .  A
N819       N2402   1.319       .  A
N819       Co820   2.088   1_655  S
Co820       N823   2.076       .  S
Co820      Cl862   2.474       .  S
C821        N859   1.348       .  A
C821        C868   1.461       .  S
N822        N829   1.320       .  A
N822        N852   1.324       .  A
N822       Co855   2.083       .  S
N823        N841   1.321       .  A
N823        N859   1.325       .  A
N824        C853   1.347       .  A
N824        N834   1.326       .  A
H825        C850   1.082       .  S
N826       N2395   1.320       .  A
N826        N847   1.322       .  A
N827        N845   1.320       .  A
N827        N832   1.327       .  A
C828        N832   1.350       .  A
C828        C856   1.458       .  S
C828        C888   1.468       .  S
N829        C844   1.343       .  A
N829       Co851   2.085       .  S
C830        N858   1.335       .  A
C830        C833   1.450       .  S
C830        H864   1.082       .  S
N831       C2389   1.348       .  A
C833       N2430   1.355       .  A
C833        C876   1.468       .  S
N834       N2416   1.321       .  A
N835        C861   1.341       .  A
N835        N837   1.321       .  A
N836        C850   1.339       .  A
N836       N2390   1.321       .  A
N837        N865   1.326       .  A
H838        C861   1.082       .  S
H839        C856   1.082       .  S
N840       N2410   1.320       .  A
N841       Co855   2.087       .  S
N842        N854   1.327       .  A
N842       N2434   1.319       .  A
C843        N847   1.347       .  A
C843       C2433   1.461       .  S
C844        C863   1.460       .  S
C844        H848   1.082       .  S
N845        C856   1.340       .  A
C849        N865   1.353       .  A
C849        C861   1.455       .  S
C849        C882   1.469       .  S
Co851      Cl862   2.471       .  S
N852        C863   1.348       .  A
C853       C2391   1.457       .  S
N854       C2409   1.350       .  A
Co855      Cl862   2.427       .  S
C857       C2419   1.461       .  S
N858       N2418   1.319       .  A
Cl862     Co2394   2.431   1_455  S
C866        N867   1.362       .  A
C866        N871   1.360       .  A
C866       C1437   1.484       .  S
N867        C868   1.359       .  A
C868        N869   1.353       .  A
N869        C870   1.352       .  A
C870        N871   1.358       .  A
C870        C910   1.460       .  S
C872        N873   1.362       .  A
C872        N877   1.363       .  A
C872       C1422   1.480       .  S
N873        C874   1.359       .  A
C874        N875   1.356       .  A
C874        C898   1.469       .  S
N875        C876   1.357       .  A
C876        N877   1.357       .  A
C878        N879   1.361       .  A
C878        N883   1.363       .  A
C878       C1381   1.489       .  S
N879        C880   1.358       .  A
C880        N881   1.356       .  A
C880        C905   1.465       .  S
N881        C882   1.355       .  A
C882        N883   1.361       .  A
C884        N885   1.359       .  A
C884        N889   1.363       .  A
C884       C1366   1.480       .  S
N885        C886   1.357       .  A
C886        N887   1.357       .  A
C886        C926   1.462       .  S
N887        C888   1.355       .  A
C888        N889   1.358       .  A
C890        N908   1.351       .  A
C890        C927   1.453       .  S
N891        N908   1.327       .  A
N891        N913   1.319       .  A
N891       Co928   2.088       .  S
C892        N917   1.345       .  A
C892        C930   1.461       .  S
C892        H937   1.081       .  S
H893        C934   1.082       .  S
C894        N918   1.340       .  A
C894        C898   1.456       .  S
C894        H923   1.082       .  S
Co895       N913   2.075       .  S
Co895       N903   2.087       .  S
Co895       N935   2.091       .  S
Co895       N911   2.083       .  S
Co895      Cl939   2.429       .  S
N896        C934   1.341       .  A
N896        N903   1.321       .  A
N896       Co897   2.078       .  S
Co897       N900   2.094       .  S
Co897       N917   2.093       .  S
Co897       N904   2.084       .  S
Co897      Cl939   2.472       .  S
C898        N936   1.351       .  A
N899        N906   1.321       .  A
N899        N929   1.328       .  A
N899       Co932   2.097       .  S
N900        N918   1.320       .  A
N900        N936   1.328       .  A
N901        C930   1.348       .  A
N901        N911   1.324       .  A
H902        C927   1.082       .  S
N903        N924   1.323       .  A
N904        N922   1.322       .  A
N904        N909   1.325       .  A
C905        N909   1.350       .  A
C905        C933   1.456       .  S
N906        C921   1.337       .  A
N906       Co928   2.076       .  S
C907        N935   1.340       .  A
C907        C910   1.459       .  S
C907        H941   1.082       .  S
C910        N931   1.346       .  A
N911        N917   1.320       .  A
N912        C938   1.344       .  A
N912        N914   1.319       .  A
N912       Co928   2.085       .  S
N913        C927   1.337       .  A
N914        N942   1.322       .  A
N914       Co932   2.080       .  S
H915        C938   1.082       .  S
H916        C933   1.082       .  S
N918       Co932   2.079       .  S
N919        N931   1.323       .  A
N919        N935   1.321       .  A
N919       Co928   2.072       .  S
C920        N924   1.348       .  A
C920        C934   1.457       .  S
C921        C940   1.455       .  S
C921        H925   1.082       .  S
N922        C933   1.339       .  A
N922       Co932   2.088       .  S
C926        N942   1.346       .  A
C926        C938   1.462       .  S
Co928      Cl939   2.472       .  S
N929        C940   1.351       .  A
Co932      Cl939   2.431       .  S
C943       C1506   1.490       .  S
C943        C944   1.421       .  A
C943        C948   1.404       .  A
C944       C1409   1.491       .  S
C944        C945   1.407       .  A
C945        C946   1.403       .  A
C946       C1297   1.487       .  S
C946        C947   1.414       .  A
C947       C1338   1.485       .  S
C947        C948   1.398       .  A
C948        H949   1.084       .  S
C951       C3054   1.484       .  S
C951        C952   1.415       .  A
C951       C2532   1.400       .  A
C952       C1450   1.483       .  S
C952        C953   1.399       .  A
C953        H958   1.084       .  S
C953        C954   1.404   1_554  A
C954       C1241   1.489       .  S
C954        C955   1.418       .  A
C955       C2858   1.481   1_455  S
C955       C2532   1.403   1_556  A
C956        H957   1.085       .  S
C956       C2527   1.397       .  A
C956       C2531   1.400   1_554  A
C959       C1394   1.487       .  S
C959        C960   1.411       .  A
C959        C964   1.399       .  A
C960       C1549   1.481       .  S
C960        C961   1.401       .  A
C961       H2542   1.084   1_455  S
C961        C962   1.407       .  A
C962       C1213   1.492       .  S
C962        C963   1.422       .  A
C963       C1198   1.488       .  S
C963        C964   1.406       .  A
C964        H965   1.084       .  S
H966       C2537   1.084       .  S
C967        C968   1.415       .  A
C967        C972   1.402       .  A
C968       C1521   1.485       .  S
C968        C969   1.405       .  A
C969        H974   1.084       .  S
C969        C970   1.401   1_554  A
C970       C1157   1.482       .  S
C970        C971   1.412       .  A
C971       C1129   1.478       .  S
C971        C972   1.398   1_556  A
C975        N976   1.357       .  A
C975        N980   1.355       .  A
C975       C1170   1.472       .  S
N976        C977   1.357       .  A
C977        N978   1.355       .  A
C977       C1011   1.459       .  S
N978        C979   1.356       .  A
C979        N980   1.356       .  A
C979       C1106   1.456       .  S
C981        N982   1.364       .  A
C981        N986   1.364       .  A
C981       C1269   1.482       .  S
N982        C983   1.358       .  A
C983        N984   1.354       .  A
C983       C1031   1.467       .  S
N984        C985   1.354       .  A
C985        N986   1.359       .  A
C985       C1084   1.467       .  S
C987        N988   1.359       .  A
C987        N992   1.358       .  A
C987       C1142   1.481       .  S
N988        C989   1.359       .  A
C989        N990   1.356       .  A
C989       C1047   1.465       .  S
N990        C991   1.357       .  A
C991        N992   1.358       .  A
C991       C1091   1.462       .  S
C993        N994   1.363       .  A
C993        N998   1.359       .  A
C993       C1254   1.480       .  S
N994        C995   1.361       .  A
C995        N996   1.357       .  A
C995       C1116   1.466       .  S
N996        C997   1.356       .  A
C997        N998   1.355       .  A
C997       C1061   1.462       .  S
C999       N1000   1.361       .  A
C999       N1004   1.361       .  A
C999       C1185   1.483       .  S
N1000      C1001   1.356       .  A
C1001      N1002   1.354       .  A
C1001      C1026   1.460       .  S
N1002      C1003   1.355       .  A
C1003      N1004   1.357       .  A
C1003      C1112   1.459       .  S
C1005      N1006   1.354       .  A
C1005      N1010   1.358       .  A
C1005      C1310   1.472       .  S
N1006      C1007   1.355       .  A
C1007      N1008   1.360       .  A
C1007      C1126   1.465       .  S
N1008      C1009   1.361       .  A
C1009      N1010   1.358       .  A
C1009      C1051   1.468       .  S
C1011      N1029   1.346       .  A
C1011      C1048   1.458       .  S
N1012      N1029   1.322       .  A
N1012      N1034   1.321       .  A
N1012     Co1049   2.069       .  S
C1013      N1038   1.341       .  A
C1013      C1051   1.459       .  S
C1013      H1058   1.082       .  S
H1014      C1055   1.082       .  S
C1015      N1039   1.338       .  A
C1015      C1019   1.457       .  S
C1015      H1044   1.082       .  S
Co1016     N1034   2.089       .  S
Co1016     N1024   2.074       .  S
Co1016     N1056   2.074       .  S
Co1016     N1032   2.093       .  S
Co1016    Cl1060   2.426       .  S
N1017      C1055   1.345       .  A
N1017      N1024   1.319       .  A
N1017     Co1018   2.088       .  S
Co1018     N1021   2.090       .  S
Co1018     N1038   2.086       .  S
Co1018     N1025   2.088       .  S
Co1018    Cl1060   2.476       .  S
C1019      N1057   1.351       .  A
C1019      C1074   1.471       .  S
N1020      N1027   1.318       .  A
N1020      N1050   1.323       .  A
N1020     Co1053   2.075       .  S
N1021      N1039   1.322       .  A
N1021      N1057   1.329       .  A
N1022      C1051   1.349       .  A
N1022      N1032   1.325       .  A
H1023      C1048   1.081       .  S
N1024      N1045   1.321       .  A
N1025      N1043   1.319       .  A
N1025      N1030   1.326       .  A
C1026      N1030   1.350       .  A
C1026      C1054   1.452       .  S
N1027      C1042   1.342       .  A
N1027     Co1049   2.086       .  S
C1028      N1056   1.336       .  A
C1028      C1031   1.453       .  S
C1028      H1062   1.082       .  S
C1031      N1052   1.352       .  A
N1032      N1038   1.322       .  A
N1033      C1059   1.338       .  A
N1033      N1035   1.321       .  A
N1033     Co1049   2.071       .  S
N1034      C1048   1.341       .  A
N1035      N1063   1.326       .  A
N1035     Co1053   2.102       .  S
H1036      C1059   1.082       .  S
H1037      C1054   1.082       .  S
N1039     Co1053   2.095       .  S
N1040      N1052   1.329       .  A
N1040      N1056   1.319       .  A
N1040     Co1049   2.091       .  S
C1041      N1045   1.345       .  A
C1041      C1055   1.463       .  S
C1041      C1068   1.463       .  S
C1042      C1061   1.460       .  S
C1042      H1046   1.082       .  S
N1043      C1054   1.337       .  A
N1043     Co1053   2.070       .  S
C1047      N1063   1.352       .  A
C1047      C1059   1.453       .  S
Co1049    Cl1060   2.471       .  S
N1050      C1061   1.347       .  A
Co1053    Cl1060   2.429       .  S
C1064      N1065   1.363       .  A
C1064      N1069   1.361       .  A
C1064      C1226   1.483       .  S
N1065      C1066   1.361       .  A
C1066      N1067   1.356       .  A
C1066      C1076   1.468       .  S
N1067      C1068   1.355       .  A
C1068      N1069   1.357       .  A
C1070      N1071   1.362       .  A
C1070      N1075   1.364       .  A
C1070      C1325   1.477       .  S
N1071      C1072   1.358       .  A
C1072      N1073   1.354       .  A
C1072      C1096   1.468       .  S
N1073      C1074   1.355       .  A
C1074      N1075   1.361       .  A
C1076      N1094   1.351       .  A
C1076      C1113   1.456       .  S
N1077      N1094   1.328       .  A
N1077      N1099   1.320       .  A
N1077     Co2690   2.090       .  S
C1078      N1103   1.345       .  A
C1078      C1116   1.462       .  S
C1078      H1123   1.082       .  S
H1079      C1120   1.082       .  S
C1080      N1104   1.336       .  A
C1080      C1084   1.453       .  S
C1080      H1109   1.082       .  S
Co1081     N2675   2.077   1_455  S
Co1081     N2665   2.091   1_455  S
Co1081     N1121   2.093       .  S
Co1081     N1097   2.079       .  S
Co1081    Cl1125   2.430       .  S
N1082      C1120   1.336       .  A
N1082      N1089   1.322       .  A
N1082     Co2659   2.069       .  S
Co1083     N2658   2.075   1_455  S
Co1083     N1874   2.094   1_465  S
Co1083     N1103   2.091       .  S
Co1083    Cl1125   2.476       .  S
C1084      N1122   1.352       .  A
N1085      N1092   1.322       .  A
N1085      N1115   1.326       .  A
N1085     Co2694   2.093       .  S
N1086      N1104   1.320       .  A
N1086      N1122   1.329       .  A
N1086     Co1871   2.094       .  S
N1087      C1116   1.347       .  A
N1087      N1097   1.323       .  A
H1088      C1113   1.082       .  S
N1089      N1110   1.324       .  A
N1089     Co2657   2.087       .  S
N1090      N1108   1.321       .  A
N1090      N1095   1.324       .  A
C1091      N1095   1.348       .  A
C1091      C1119   1.457       .  S
N1092      C1107   1.338       .  A
N1092     Co1902   2.079       .  S
C1093      N1121   1.339       .  A
C1093      C1096   1.458       .  S
C1093      H1127   1.082       .  S
C1096      N1117   1.350       .  A
N1097      N1103   1.320       .  A
N1098      C1124   1.342       .  A
N1098      N1100   1.319       .  A
N1099      C1113   1.339       .  A
N1099     Co2657   2.082       .  S
N1100      N1128   1.322       .  A
N1100     Co1118   2.074       .  S
H1101      C1124   1.081       .  S
H1102      C1119   1.082       .  S
N1104     Co2694   2.077       .  S
N1105      N1117   1.327       .  A
N1105      N1121   1.322       .  A
N1105     Co1114   2.085       .  S
C1106      N1110   1.348       .  A
C1106      C1120   1.452       .  S
C1107      C1126   1.456       .  S
C1107      H1111   1.082       .  S
N1108      C1119   1.340       .  A
N1108     Co1118   2.089       .  S
C1112      N1128   1.346       .  A
C1112      C1124   1.458       .  S
Co1114     N2653   2.097   1_455  S
Co1114     N1880   2.081   1_465  S
Co1114    Cl1125   2.476       .  S
N1115      C1126   1.350       .  A
Co1118     N2661   2.090   1_455  S
Co1118     N2680   2.069   1_455  S
C1129      C1130   1.404   1_565  A
C1130      N1135   1.431       .  S
C1131      H1136   1.084       .  S
C1131      C1132   1.403       .  A
C1132      C1137   1.483       .  S
C1132      C1133   1.414       .  A
C1133      C1134   1.400       .  A
C1133      N1138   1.433       .  S
C1134      H1139   1.084       .  S
N1135      H1155   1.045       .  S
N1135      H1156   1.046       .  S
C1137      C1140   1.402       .  A
C1137      C1144   1.410       .  A
N1138      H1153   1.045       .  S
N1138      H1154   1.045       .  S
C1140      C1141   1.406       .  A
C1141      C1142   1.413       .  A
C1141      N1146   1.438       .  S
C1142      C1143   1.405       .  A
C1143      H1147   1.084       .  S
C1143      C1144   1.406       .  A
C1144      N1148   1.438       .  S
N1146      H1150   1.046       .  S
N1148      H1151   1.047       .  S
N1148      H1152   1.045       .  S
C1157      C1158   1.413       .  A
C1157      C1162   1.404       .  A
C1158      C1159   1.397       .  A
C1158      N1163   1.433       .  S
C1159      H1164   1.084       .  S
C1159      C1160   1.401       .  A
C1160      C1165   1.475       .  S
C1160      C1161   1.408       .  A
C1161      C1162   1.404       .  A
C1161      N1166   1.438       .  S
C1162      H1167   1.083       .  S
C1165      C1168   1.400       .  A
C1165      C1172   1.409       .  A
N1166      H1181   1.046       .  S
N1166      H1182   1.045       .  S
C1168      H1173   1.084       .  S
C1168      C1169   1.401       .  A
C1169      C1170   1.408       .  A
C1169      N1174   1.433       .  S
C1170      C1171   1.403       .  A
C1171      H1175   1.084       .  S
C1171      C1172   1.405       .  A
C1172      N1176   1.438       .  S
N1174      H1177   1.046       .  S
N1174      H1178   1.045       .  S
N1176      H1179   1.044       .  S
N1176      H1180   1.048       .  S
C1185      C1186   1.411       .  A
C1185      C1190   1.406       .  A
C1186      C1187   1.406       .  A
C1186      N1191   1.432       .  S
C1187      H1192   1.084       .  S
C1187      C1188   1.403       .  A
C1188      C1193   1.482       .  S
C1188      C1189   1.409       .  A
C1189      C1190   1.403       .  A
C1189      N1194   1.438       .  S
C1190      H1195   1.083       .  S
N1191      H1211   1.046       .  S
N1191      H1212   1.045       .  S
C1193      C1196   1.403       .  A
C1193      C1200   1.408       .  A
N1194      H1209   1.045       .  S
N1194      H1210   1.046       .  S
C1196      H1201   1.084       .  S
C1196      C1197   1.407       .  A
C1197      C1198   1.412       .  A
C1197      N1202   1.437   1_455  S
C1198      C1199   1.405       .  A
C1199      H1203   1.084       .  S
C1199      C1200   1.403       .  A
C1200      N1204   1.438       .  S
N1202      H2781   1.045       .  S
N1202      H2782   1.046       .  S
N1204      H1207   1.045       .  S
N1204      H1208   1.046       .  S
H1205      N2778   1.045       .  S
H1206      N2778   1.045       .  S
C1213      C2790   1.416   1_455  A
C1213      C1218   1.405       .  A
C1214      C2789   1.416       .  A
C1214      C1215   1.405       .  A
C1214      N1219   1.438       .  S
C1215      H1220   1.084       .  S
C1215      C1216   1.400       .  A
C1216      C1221   1.480       .  S
C1216      C2793   1.409       .  A
C1217      C2792   1.408   1_455  A
C1217      C1218   1.404       .  A
C1217      N1222   1.432       .  S
C1218      H1223   1.083       .  S
N1219      H1239   1.045       .  S
N1219      H1240   1.046       .  S
C1221      C1224   1.399       .  A
C1221      C1228   1.410       .  A
N1222      H1237   1.045       .  S
N1222      H1238   1.046       .  S
C1224      H1229   1.084       .  S
C1224      C1225   1.405       .  A
C1225      C1226   1.416       .  A
C1225      N1230   1.438       .  S
C1226      C1227   1.404       .  A
C1227      H1231   1.084       .  S
C1227      C1228   1.409       .  A
C1228      N1232   1.438       .  S
N1230      H1233   1.045       .  S
N1230      H1234   1.046       .  S
N1232      H1235   1.046       .  S
N1232      H1236   1.044       .  S
C1241      C1242   1.412       .  A
C1241      C1246   1.405       .  A
C1242      C1243   1.405       .  A
C1242      N2823   1.437   1_455  S
C1243      H1248   1.084       .  S
C1243      C1244   1.402       .  A
C1244      C1249   1.478       .  S
C1244      C1245   1.414       .  A
C1245      C1246   1.400       .  A
C1245      N1250   1.439       .  S
C1246      H1251   1.084       .  S
N1247      C2818   1.437       .  S
N1247      H1267   1.046       .  S
N1247      H1268   1.045       .  S
C1249      C1252   1.402       .  A
C1249      C1256   1.408       .  A
N1250      H1265   1.045       .  S
N1250      H1266   1.043       .  S
C1252      H1257   1.084       .  S
C1252      C1253   1.407       .  A
C1253      C1254   1.411       .  A
C1253      N1258   1.437       .  S
C1254      C1255   1.407       .  A
C1255      H1259   1.084       .  S
C1255      C1256   1.404       .  A
C1256      N1260   1.439       .  S
N1258      H1261   1.046       .  S
N1258      H1262   1.046       .  S
N1260      H1263   1.046       .  S
N1260      H1264   1.045       .  S
C1269      C1270   1.412       .  A
C1269      C1274   1.405       .  A
C1270      C1271   1.409       .  A
C1270      N1275   1.437       .  S
C1271      H1276   1.084       .  S
C1271      C1272   1.403       .  A
C1272      C1277   1.481       .  S
C1272      C1273   1.410       .  A
C1273      C1274   1.405       .  A
C1273      N1278   1.440       .  S
C1274      H1279   1.084       .  S
N1275      H1295   1.045       .  S
N1275      H1296   1.046       .  S
C1277      C1280   1.404       .  A
C1277      C1284   1.409       .  A
N1278      H1293   1.046       .  S
N1278      H1294   1.043       .  S
C1280      H2861   1.084       .  S
C1280      C2857   1.408       .  A
C1281      C2856   1.404       .  A
C1281      C2858   1.410   1_455  A
C1281      N1286   1.437       .  S
C1282      C2531   1.487       .  S
C1282      C2857   1.411       .  A
C1282      C1283   1.405       .  A
C1283      H1287   1.084       .  S
C1283      C1284   1.404       .  A
C1284      N1288   1.439       .  S
H1285      C2856   1.084       .  S
N1286      H1289   1.045       .  S
N1286      H1290   1.046       .  S
N1288      H1291   1.045       .  S
N1288      H1292   1.044       .  S
C1297      C1302   1.405       .  A
C1298      C1299   1.403       .  A
C1298      N1303   1.438       .  S
C1299      H1304   1.084       .  S
C1299      C1300   1.402       .  A
C1300      C1305   1.471       .  S
C1301      C1302   1.402       .  A
C1301      N1306   1.439       .  S
C1302      H1307   1.083       .  S
N1303      H1323   1.045       .  S
N1303      H1324   1.046       .  S
C1305      C1308   1.401       .  A
C1305      C1312   1.409       .  A
N1306      H1321   1.045       .  S
N1306      H1322   1.044       .  S
C1308      H1313   1.084       .  S
C1308      C1309   1.402       .  A
C1309      C1310   1.409       .  A
C1309      N1314   1.438       .  S
C1310      C1311   1.404       .  A
C1311      H1315   1.084       .  S
C1311      C1312   1.404       .  A
C1312      N1316   1.439       .  S
N1314      H1317   1.046       .  S
N1314      H1318   1.045       .  S
N1316      H1319   1.045       .  S
N1316      H1320   1.043       .  S
C1325      C1326   1.411       .  A
C1325      C1330   1.404       .  A
C1326      C1327   1.408       .  A
C1326      N1331   1.437       .  S
C1327      H1332   1.084       .  S
C1327      C1328   1.403       .  A
C1328      C1333   1.478       .  S
C1328      C1329   1.407       .  A
C1329      C1330   1.406       .  A
C1329      N1334   1.438       .  S
C1330      H1335   1.084       .  S
N1331      H1351   1.045       .  S
N1331      H1352   1.046       .  S
C1333      C1336   1.401       .  A
C1333      C1340   1.409       .  A
N1334      H1349   1.046       .  S
N1334      H1350   1.045       .  S
C1336      H1341   1.084       .  S
C1336      C1337   1.405       .  A
C1337      C1338   1.411       .  A
C1337      N1342   1.438       .  S
C1338      C1339   1.405       .  A
C1339      H1343   1.084   1_565  S
C1339      C1340   1.406       .  A
C1340      N1344   1.438       .  S
N1342      H1345   1.046       .  S
N1342      H1346   1.045       .  S
N1344      H1347   1.046   1_565  S
N1344      H1348   1.045       .  S
C1353      C1354   1.411       .  A
C1353      C1358   1.406       .  A
C1354      C1355   1.407       .  A
C1354      N1359   1.437       .  S
C1355      H1360   1.084       .  S
C1355      C1356   1.402       .  A
C1356      C1361   1.476       .  S
C1356      C1357   1.407       .  A
C1357      C1358   1.402       .  A
C1357      N1362   1.439       .  S
N1359      H1380   1.045       .  S
C1361      C1364   1.402       .  A
C1361      C1368   1.407       .  A
N1362      H1377   1.045       .  S
N1362      H1378   1.045       .  S
C1364      H1369   1.084       .  S
C1364      C1365   1.409       .  A
C1365      C1366   1.413       .  A
C1365      N1370   1.438       .  S
C1366      C1367   1.405       .  A
C1367      H1371   1.084       .  S
C1367      C1368   1.402       .  A
N1370      H1373   1.046       .  S
N1370      H1374   1.046       .  S
N1372      H1375   1.046       .  S
N1372      H1376   1.046       .  S
C1381      C1382   1.412       .  A
C1381      C1386   1.407       .  A
C1382      C1383   1.405       .  A
C1382      N1387   1.432       .  S
C1383      H1388   1.084       .  S
C1383      C1384   1.403       .  A
C1384      C1389   1.489       .  S
C1384      C1385   1.411       .  A
C1385      C1386   1.408       .  A
C1385      N1390   1.438       .  S
C1386      H1391   1.083       .  S
N1387      H1407   1.046       .  S
N1387      H1408   1.045       .  S
C1389      C1392   1.404       .  A
C1389      C1396   1.411       .  A
N1390      H1405   1.045       .  S
N1390      H1406   1.046       .  S
C1392      H1397   1.084       .  S
C1392      C1393   1.404       .  A
C1393      C1394   1.418       .  A
C1393      N1398   1.439       .  S
C1394      C1395   1.403       .  A
C1395      H1399   1.084       .  S
C1395      C1396   1.405       .  A
C1396      N1400   1.438       .  S
N1398      H1401   1.046       .  S
N1398      H1402   1.043       .  S
N1400      H1403   1.046   1_455  S
N1400      H1404   1.045       .  S
C1409      C1410   1.413       .  A
C1410      N1415   1.438       .  S
C1411      H1416   1.084       .  S
C1411      C1412   1.399       .  A
C1412      C1417   1.482       .  S
C1412      C1413   1.410       .  A
C1413      C1414   1.408       .  A
C1413      N1418   1.437       .  S
C1414      H1419   1.083       .  S
N1415      H1435   1.046       .  S
N1415      H1436   1.045       .  S
C1417      C1420   1.398       .  A
C1417      C1424   1.412       .  A
N1418      H1433   1.046       .  S
N1418      H1434   1.045       .  S
C1420      C1421   1.403       .  A
C1421      C1422   1.413       .  A
C1421      N1426   1.438       .  S
C1422      C1423   1.405       .  A
C1423      H1427   1.084       .  S
C1423      C1424   1.412       .  A
C1424      N1428   1.437       .  S
N1426      H1430   1.046       .  S
N1428      H1431   1.045       .  S
N1428      H1432   1.045       .  S
C1437      C1438   1.417       .  A
C1437      C1442   1.404       .  A
C1438      C1439   1.408       .  A
C1438      N1443   1.438       .  S
C1439      H1444   1.084       .  S
C1439      C1440   1.403       .  A
C1440      C1445   1.485       .  S
C1440      C1441   1.409       .  A
C1441      C1442   1.404       .  A
C1441      N1446   1.438       .  S
C1442      H1447   1.084       .  S
N1443      H1463   1.045       .  S
N1443      H1464   1.046       .  S
C1445      C1448   1.404       .  A
C1445      C1452   1.411       .  A
N1446      H1461   1.045       .  S
N1446      H1462   1.046       .  S
C1448      H1453   1.084       .  S
C1448      C1449   1.405       .  A
C1449      C1450   1.410       .  A
C1449      N1454   1.438   1_455  S
C1450      C1451   1.403       .  A
C1451      H1455   1.084       .  S
C1451      C1452   1.405       .  A
C1452      N1456   1.437       .  S
N1454      H1457   1.046       .  S
N1454      H1458   1.042       .  S
N1456      H1459   1.046       .  S
N1456      H1460   1.045       .  S
C1465      C1466   1.407       .  A
C1465      C1470   1.399       .  A
C1466      C1467   1.403       .  A
C1466      N1471   1.438       .  S
C1467      H1472   1.084       .  S
C1467      C1468   1.402       .  A
C1468      C1473   1.475       .  S
C1468      C1469   1.411       .  A
C1469      C1470   1.402       .  A
C1469      N1474   1.438       .  S
C1470      H1475   1.084       .  S
N1471      H1491   1.045       .  S
N1471      H1492   1.046       .  S
C1473      C1476   1.402       .  A
C1473      C3056   1.409       .  A
N1474      H1489   1.046       .  S
N1474      H1490   1.046       .  S
C1476      H1481   1.084       .  S
C1476      C1477   1.401       .  A
C1477      C1478   1.408       .  A
C1477      N1482   1.437       .  S
C1478      C2527   1.476       .  S
C1478      C3055   1.402       .  A
C1479      H1483   1.082       .  S
C1479      C3054   1.403       .  A
C1479      C1480   1.401       .  A
C1480      C3049   1.409   1_455  A
C1480      N1484   1.438       .  S
N1482      H1485   1.046       .  S
N1482      H1486   1.046       .  S
N1484      H1487   1.045       .  S
N1484      H1488   1.046       .  S
C1493      C1494   1.416       .  A
C1493      C1498   1.405       .  A
C1494      C1495   1.403       .  A
C1494      N1499   1.438       .  S
C1495      H1500   1.084       .  S
C1495      C1496   1.398       .  A
C1496      C1501   1.480       .  S
C1496      C1497   1.411       .  A
C1497      C1498   1.411       .  A
C1497      N1502   1.438       .  S
C1498      H1503   1.084       .  S
N1499      H1519   1.046       .  S
N1499      H1520   1.045       .  S
C1501      C1504   1.401       .  A
C1501      C1508   1.410       .  A
N1502      H1517   1.046       .  S
N1502      H1518   1.043       .  S
C1504      H1509   1.084       .  S
C1504      C1505   1.405       .  A
C1505      C1506   1.414       .  A
C1505      N1510   1.438       .  S
C1506      C1507   1.405       .  A
C1507      H1511   1.083       .  S
C1507      C1508   1.405       .  A
C1508      N1512   1.438       .  S
N1510      H1513   1.046       .  S
N1510      H1514   1.046       .  S
N1512      H1515   1.045       .  S
N1512      H1516   1.044       .  S
C1521      C1522   1.407       .  A
C1521      C1526   1.403       .  A
C1522      C1523   1.401       .  A
C1522      N1527   1.432       .  S
C1523      H1528   1.083       .  S
C1523      C1524   1.404       .  A
C1524      C1529   1.490       .  S
C1524      C1525   1.415       .  A
C1525      C1526   1.407       .  A
C1525      N1530   1.438       .  S
C1526      H1531   1.084       .  S
N1527      H1547   1.045       .  S
N1527      H1548   1.046       .  S
C1529      C1532   1.404       .  A
C1529      C1536   1.411       .  A
N1530      H1545   1.046       .  S
N1530      H1546   1.046       .  S
C1532      H1537   1.083       .  S
C1532      C1533   1.407       .  A
C1533      C1534   1.415       .  A
C1533      N1538   1.438       .  S
C1534      C1535   1.408       .  A
C1535      H1539   1.083       .  S
C1535      C1536   1.405       .  A
C1536      N1540   1.438       .  S
N1538      H1541   1.045       .  S
N1538      H1542   1.046       .  S
N1540      H1543   1.045       .  S
N1540      H1544   1.046       .  S
C1549      C3126   1.411   1_455  A
C1549      C1554   1.402       .  A
C1550      C3125   1.412       .  A
C1550      C1551   1.404       .  A
C1550      N1555   1.438       .  S
C1551      H1556   1.084       .  S
C1551      C1552   1.402       .  A
C1552      C1557   1.477       .  S
C1552      C3129   1.412       .  A
C1553      C3128   1.411   1_455  A
C1553      C1554   1.395       .  A
C1553      N1558   1.433       .  S
C1554      H1559   1.084       .  S
N1555      H1575   1.046       .  S
N1555      H1576   1.045       .  S
C1557      C1560   1.400       .  A
C1557      C1564   1.406       .  A
N1558      H1573   1.044       .  S
N1558      H1574   1.046       .  S
C1560      H1565   1.084       .  S
C1560      C1561   1.404       .  A
C1561      C1562   1.415       .  A
C1561      N1566   1.438       .  S
C1562      C1563   1.404       .  A
C1563      H1567   1.084       .  S
C1563      C1564   1.401       .  A
C1564      N1568   1.432       .  S
N1566      H1569   1.046       .  S
N1566      H1570   1.046       .  S
N1568      H1571   1.046       .  S
N1568      H1572   1.045       .  S
C1577      N1578   1.358       .  A
C1577      N1582   1.356       .  A
C1577      C2350   1.475       .  S
N1578      C1579   1.356       .  A
C1579      N1580   1.357       .  A
C1579      C1601   1.463       .  S
N1580      C1581   1.357       .  A
C1581      N1582   1.356       .  A
C1581      C1708   1.459       .  S
C1583      N1584   1.361       .  A
C1583      N1588   1.364       .  A
C1583      C2322   1.483       .  S
N1584      C1585   1.356       .  A
C1585      N1586   1.355       .  A
C1585      C1631   1.466       .  S
N1586      C1587   1.357       .  A
C1587      N1588   1.362       .  A
C1587      C1678   1.469       .  S
C1589      N1590   1.361       .  A
C1589      N1594   1.362       .  A
C1589      C2281   1.479       .  S
N1590      C1591   1.358       .  A
C1591      N1592   1.355       .  A
C1591      C1651   1.466       .  S
N1592      C1593   1.357       .  A
C1593      N1594   1.360       .  A
C1593      C1718   1.465       .  S
C1595      N1596   1.353       .  A
C1595      N1600   1.355       .  A
C1595      C2253   1.470       .  S
N1596      C1597   1.355       .  A
C1597      N1598   1.360       .  A
C1597      C1728   1.462       .  S
N1598      C1599   1.361       .  A
C1599      N1600   1.358       .  A
C1599      C1641   1.464       .  S
C1601      C1638   1.454       .  S
N1602      N1619   1.323       .  A
N1602     Co1639   2.077       .  S
C1603      N1628   1.337       .  A
C1603      H1648   1.082       .  S
H1604      C1645   1.082       .  S
C1605      N1629   1.337       .  A
C1605      C1609   1.456       .  S
C1605      H1634   1.082       .  S
Co1606     N1624   2.083       .  S
Co1606     N1614   2.080       .  S
Co1606     N2434   2.075       .  S
Co1606     N2410   2.091       .  S
N1607      C1645   1.344       .  A
N1607     Co1608   2.086       .  S
Co1608     N1611   2.080       .  S
Co1608     N2416   2.077       .  S
Co1608     N2403   2.091       .  S
Co1608    Cl1650   2.474       .  S
C1609      N1647   1.349       .  A
C1609      C1656   1.462       .  S
N1610      N1617   1.321       .  A
N1610      N1640   1.324       .  A
N1610     Co1643   2.083       .  S
N1611      N1629   1.321       .  A
N1611      N1647   1.326       .  A
N1612      C1641   1.350       .  A
N1612      N1622   1.327       .  A
H1613      C1638   1.082       .  S
N1614      N1635   1.323       .  A
N1615      N1633   1.320       .  A
N1615      N1620   1.326       .  A
N1615     Co2396   2.086   1_545  S
C1616      N1620   1.350       .  A
C1616      C1644   1.454       .  S
C1616      C1676   1.462       .  S
N1617      C1632   1.344       .  A
N1617     Co1639   2.093       .  S
C1618      N1646   1.337       .  A
C1618      C1621   1.454       .  S
C1618      H1652   1.082       .  S
C1621      C1664   1.462       .  S
N1622     Co2394   2.095   1_545  S
N1623      C1649   1.340       .  A
N1623      N1625   1.320       .  A
N1623     Co2427   2.079   1_545  S
N1624      C1638   1.339       .  A
N1625      N1653   1.325       .  A
N1625     Co2431   2.088   1_545  S
H1626      C1649   1.082       .  S
H1627      C1644   1.082       .  S
N1628     Co2396   2.077   1_545  S
N1629     Co1643   2.086       .  S
N1630      N1642   1.326       .  A
N1630     Co2427   2.086   1_545  S
C1631      N1635   1.347       .  A
C1632      C1651   1.460       .  S
C1632      H1636   1.082       .  S
N1633      C1644   1.337       .  A
N1633     Co2431   2.078   1_545  S
C1637      N1653   1.349       .  A
C1637      C1649   1.457       .  S
C1637      C1670   1.465       .  S
Co1639     N2411   2.073       .  S
Co1639     N2418   2.103       .  S
Co1639    Cl1650   2.474       .  S
N1640      C1651   1.348       .  A
Co1643     N2413   2.081       .  S
Co1643     N2421   2.076       .  S
Co1643    Cl1650   2.426       .  S
N1646     Co2394   2.075   1_545  S
C1654      N1655   1.362       .  A
C1654      N1659   1.360       .  A
C1654      C2225   1.474       .  S
N1655      C1656   1.360       .  A
C1656      N1657   1.352       .  A
N1657      C1658   1.351       .  A
C1658      N1659   1.357       .  A
C1658      C1698   1.459       .  S
C1660      N1661   1.363       .  A
C1660      N1665   1.363       .  A
C1660      C2210   1.482       .  S
N1661      C1662   1.360       .  A
C1662      N1663   1.353       .  A
C1662      C1686   1.463       .  S
N1663      C1664   1.352       .  A
C1664      N1665   1.358       .  A
C1666      N1667   1.361       .  A
C1666      N1671   1.358       .  A
C1666      C2169   1.487       .  S
N1667      C1668   1.358       .  A
C1668      N1669   1.358       .  A
C1668      C1693   1.466       .  S
N1669      C1670   1.356       .  A
C1670      N1671   1.356       .  A
C1672      N1673   1.359       .  A
C1672      N1677   1.361       .  A
C1672      C2154   1.484       .  S
N1673      C1674   1.354       .  A
C1674      N1675   1.355       .  A
C1674      C1714   1.459       .  S
N1675      C1676   1.356       .  A
C1676      N1677   1.359       .  A
C1678      N1696   1.353       .  A
C1678      C1715   1.454       .  S
N1679      N1696   1.329       .  A
N1679      N1701   1.319       .  A
N1679     Co1716   2.091       .  S
C1680      N1705   1.345       .  A
C1680      C1718   1.461       .  S
C1680      H1725   1.082       .  S
H1681      C1722   1.082       .  S
C1682      N1706   1.336       .  A
C1682      C1686   1.454       .  S
C1682      H1711   1.082       .  S
Co1683     N1701   2.078       .  S
Co1683     N1691   2.086       .  S
Co1683     N1723   2.088       .  S
Co1683     N1699   2.082       .  S
Co1683    Cl1727   2.426       .  S
N1684      C1722   1.338       .  A
N1684      N1691   1.322       .  A
N1684     Co1685   2.077       .  S
Co1685     N1688   2.087       .  S
Co1685     N1705   2.090       .  S
Co1685     N1692   2.089       .  S
Co1685    Cl1727   2.474       .  S
C1686      N1724   1.350       .  A
N1687      N1694   1.321       .  A
N1687      N1717   1.327       .  A
N1687     Co1720   2.092       .  S
N1688      N1706   1.319       .  A
N1688      N1724   1.328       .  A
N1689      C1718   1.347       .  A
N1689      N1699   1.323       .  A
H1690      C1715   1.082       .  S
N1691      N1712   1.324       .  A
N1692      N1710   1.322       .  A
N1692      N1697   1.327       .  A
C1693      N1697   1.352       .  A
C1693      C1721   1.454       .  S
N1694      C1709   1.336       .  A
N1694     Co1716   2.071       .  S
C1695      N1723   1.339       .  A
C1695      C1698   1.458       .  S
C1695      H1729   1.082       .  S
C1698      N1719   1.346       .  A
N1699      N1705   1.320       .  A
N1700      C1726   1.342       .  A
N1700      N1702   1.319       .  A
N1700     Co1716   2.083       .  S
N1701      C1715   1.337       .  A
N1702      N1730   1.323       .  A
N1702     Co1720   2.077       .  S
H1703      C1726   1.082       .  S
H1704      C1721   1.082       .  S
N1706     Co1720   2.073       .  S
N1707      N1719   1.323       .  A
N1707      N1723   1.321       .  A
N1707     Co1716   2.069       .  S
C1708      N1712   1.348       .  A
C1708      C1722   1.455       .  S
C1709      C1728   1.454       .  S
C1709      H1713   1.082       .  S
N1710      C1721   1.338       .  A
N1710     Co1720   2.084       .  S
C1714      N1730   1.347       .  A
C1714      C1726   1.459       .  S
Co1716    Cl1727   2.472       .  S
N1717      C1728   1.350       .  A
Co1720    Cl1727   2.429       .  S
C1731      C2294   1.487       .  S
C1731      C1732   1.420       .  A
C1731      C1736   1.408       .  A
C1732      C2197   1.495       .  S
C1732      C1733   1.406       .  A
C1733      H2526   1.084       .  S
C1733      C1734   1.401       .  A
C1734      C2085   1.486       .  S
C1734      C1735   1.417       .  A
C1735      C2126   1.495       .  S
C1735      C1736   1.403       .  A
C1736      H1737   1.084       .  S
H1738      C2521   1.084       .  S
C1739      C1740   1.411       .  A
C1740      C2238   1.487       .  S
C1740      C1741   1.400       .  A
C1741      H1746   1.084       .  S
C1741      C1742   1.408   1_554  A
C1742      C2029   1.493       .  S
C1742      C1743   1.423       .  A
C1744      H1745   1.085   1_455  S
C1747      C2182   1.483       .  S
C1747      C1748   1.408       .  A
C1747      C1752   1.398       .  A
C1748      C2337   1.477       .  S
C1748      C1749   1.398       .  A
C1749      C1750   1.406       .  A
C1750      C2001   1.491       .  S
C1750      C1751   1.422       .  A
C1751      C1986   1.486       .  S
C1751      C1752   1.406       .  A
C1752      H1753   1.085       .  S
C1755      C2929   1.488       .  S
C1755      C1756   1.421       .  A
C1755      C1760   1.408       .  A
C1756      C2309   1.491       .  S
C1756      C1757   1.404       .  A
C1757      H1762   1.084       .  S
C1757      C1758   1.400   1_554  A
C1758      C1945   1.481       .  S
C1758      C1759   1.412       .  A
C1759      C1917   1.487       .  S
C1759      C1760   1.402   1_556  A
C1760      H2549   1.084       .  S
H1761      C2548   1.084   1_545  S
C1763      N1764   1.355       .  A
C1763      N1768   1.357       .  A
C1763      C1958   1.472       .  S
N1764      C1765   1.356       .  A
C1765      N1766   1.356       .  A
C1765      C1799   1.457       .  S
N1766      C1767   1.356       .  A
C1767      N1768   1.357       .  A
C1767      C1894   1.459       .  S
C1769      N1770   1.361       .  A
C1769      N1774   1.363       .  A
C1769      C2057   1.476       .  S
N1770      C1771   1.356       .  A
C1771      N1772   1.354       .  A
C1771      C1819   1.464       .  S
N1772      C1773   1.356       .  A
C1773      N1774   1.360       .  A
C1773      C1872   1.466       .  S
C1775      N1776   1.361       .  A
C1775      N1780   1.361       .  A
C1775      C1930   1.487       .  S
N1776      C1777   1.361       .  A
C1777      N1778   1.357       .  A
C1777      C1835   1.472       .  S
N1778      C1779   1.359       .  A
C1779      N1780   1.361       .  A
C1779      C1879   1.469       .  S
C1781      N1782   1.360       .  A
C1781      N1786   1.360       .  A
C1781      C2042   1.479       .  S
N1782      C1783   1.358       .  A
C1783      N1784   1.357       .  A
C1783      C1904   1.462       .  S
N1784      C1785   1.356       .  A
C1785      N1786   1.356       .  A
C1785      C1849   1.462       .  S
C1787      N1788   1.362       .  A
C1787      N1792   1.360       .  A
C1787      C1973   1.491       .  S
N1788      C1789   1.357       .  A
C1789      N1790   1.354       .  A
C1789      C1814   1.461       .  S
N1790      C1791   1.354       .  A
C1791      N1792   1.356       .  A
C1791      C1900   1.457       .  S
C1793      N1794   1.358       .  A
C1793      N1798   1.357       .  A
C1793      C2098   1.479       .  S
N1794      C1795   1.358       .  A
C1795      N1796   1.360       .  A
C1795      C1914   1.471       .  S
N1796      C1797   1.361       .  A
C1797      N1798   1.358       .  A
C1797      C1839   1.467       .  S
C1799      N1817   1.346       .  A
C1799      C1836   1.456       .  S
N1800      N1817   1.322       .  A
N1800      N1822   1.321       .  A
N1800     Co1837   2.072       .  S
C1801      N1826   1.340       .  A
C1801      C1839   1.459       .  S
C1801      H1846   1.082       .  S
H1802      C1843   1.082       .  S
C1803      N1827   1.340       .  A
C1803      C1807   1.461       .  S
C1803      H1832   1.082       .  S
Co1804     N1822   2.084       .  S
Co1804     N1812   2.079       .  S
Co1804     N1844   2.077       .  S
Co1804     N1820   2.089       .  S
Co1804    Cl1848   2.430       .  S
N1805      C1843   1.345       .  A
N1805      N1812   1.319       .  A
N1805     Co1806   2.088       .  S
Co1806     N1809   2.080       .  S
Co1806     N1826   2.083       .  S
Co1806     N1813   2.089       .  S
Co1806    Cl1848   2.472       .  S
C1807      N1845   1.348       .  A
C1807      C1862   1.469       .  S
N1808      N1815   1.319       .  A
N1808      N1838   1.322       .  A
N1808     Co1841   2.076       .  S
N1809      N1827   1.322       .  A
N1809      N1845   1.327       .  A
N1810      C1839   1.349       .  A
N1810      N1820   1.325       .  A
H1811      C1836   1.082       .  S
N1812      N1833   1.323       .  A
N1813      N1831   1.320       .  A
N1813      N1818   1.326       .  A
C1814      N1818   1.350       .  A
C1814      C1842   1.454       .  S
N1815      C1830   1.343       .  A
N1815     Co1837   2.087       .  S
C1816      N1844   1.337       .  A
C1816      C1819   1.454       .  S
C1816      H1850   1.082       .  S
C1819      N1840   1.351       .  A
N1820      N1826   1.321       .  A
N1821      C1847   1.340       .  A
N1821      N1823   1.321       .  A
N1821     Co1837   2.075       .  S
N1822      C1836   1.340       .  A
N1823      N1851   1.328       .  A
N1823     Co1841   2.111       .  S
H1824      C1847   1.082       .  S
H1825      C1842   1.082       .  S
N1827     Co1841   2.102       .  S
N1828      N1840   1.327       .  A
N1828      N1844   1.320       .  A
N1828     Co1837   2.089       .  S
C1829      N1833   1.347       .  A
C1829      C1843   1.462       .  S
C1829      C1856   1.465       .  S
C1830      C1849   1.462       .  S
C1830      H1834   1.082       .  S
N1831      C1842   1.338       .  A
N1831     Co1841   2.074       .  S
C1835      N1851   1.354       .  A
C1835      C1847   1.455       .  S
Co1837    Cl1848   2.471       .  S
N1838      C1849   1.346       .  A
Co1841    Cl1848   2.430       .  S
C1852      N1853   1.364       .  A
C1852      N1857   1.361       .  A
C1852      C2014   1.484       .  S
N1853      C1854   1.361       .  A
C1854      N1855   1.357       .  A
C1854      C1864   1.471       .  S
N1855      C1856   1.356       .  A
C1856      N1857   1.357       .  A
C1858      N1859   1.366       .  A
C1858      N1863   1.365       .  A
C1858      C2113   1.489       .  S
N1859      C1860   1.361       .  A
C1860      N1861   1.352       .  A
C1860      C1884   1.467       .  S
N1861      C1862   1.351       .  A
C1862      N1863   1.361       .  A
C1864      N1882   1.352       .  A
C1864      C1901   1.456       .  S
N1865      N1882   1.329       .  A
N1865      N1887   1.320       .  A
C1866      N1891   1.343       .  A
C1866      C1904   1.460       .  S
C1866      H1911   1.082       .  S
H1867      C1908   1.082       .  S
C1868      N1892   1.336       .  A
C1868      C1872   1.453       .  S
C1868      H1897   1.082       .  S
Co1869     N1909   2.094       .  S
Co1869     N1885   2.078       .  S
Co1869    Cl1913   2.427       .  S
N1870      C1908   1.338       .  A
N1870      N1877   1.321       .  A
Co1871     N1891   2.084       .  S
Co1871     N2666   2.064       .  S
Co1871    Cl1913   2.472       .  S
C1872      N1910   1.353       .  A
N1873      N1880   1.322       .  A
N1873      N1903   1.328       .  A
N1874      N1892   1.319       .  A
N1874      N1910   1.329       .  A
N1875      C1904   1.347       .  A
N1875      N1885   1.323       .  A
H1876      C1901   1.082       .  S
N1877      N1898   1.324       .  A
N1878      N1896   1.321       .  A
N1878      N1883   1.325       .  A
N1878     Co2659   2.079   1_545  S
C1879      N1883   1.349       .  A
C1879      C1907   1.460       .  S
N1880      C1895   1.338       .  A
C1881      N1909   1.338       .  A
C1881      C1884   1.459       .  S
C1881      H1915   1.082       .  S
C1884      N1905   1.348       .  A
N1885      N1891   1.319       .  A
N1886      C1912   1.342       .  A
N1886      N1888   1.319       .  A
N1886     Co2690   2.080   1_545  S
N1887      C1901   1.339       .  A
N1888      N1916   1.321       .  A
N1888     Co1906   2.073       .  S
H1889      C1912   1.082       .  S
H1890      C1907   1.082       .  S
N1893      N1905   1.327       .  A
N1893      N1909   1.321       .  A
N1893     Co1902   2.078       .  S
C1894      N1898   1.348       .  A
C1894      C1908   1.455       .  S
C1895      C1914   1.456       .  S
C1895      H1899   1.082   1_545  S
N1896      C1907   1.342       .  A
N1896     Co1906   2.098       .  S
C1900      N1916   1.345       .  A
C1900      C1912   1.458       .  S
Co1902     N2674   2.077       .  S
Co1902    Cl1913   2.472       .  S
N1903      C1914   1.352       .  A
Co1906    Cl2701   2.429   1_545  S
Cl1913    Co2694   2.428       .  S
C1917      C1918   1.409       .  A
C1917      C2710   1.402       .  A
C1918      C2707   1.404       .  A
C1918      N1923   1.431       .  S
C1919      H1924   1.084       .  S
C1919      C2706   1.406       .  A
C1919      C1920   1.405       .  A
C1920      C1925   1.490       .  S
C1920      C1921   1.415   1_545  A
C1921      C1922   1.402       .  A
C1921      N1926   1.432       .  S
C1922      H1927   1.084       .  S
C1922      C2705   1.403       .  A
N1923      H1943   1.045       .  S
N1923      H1944   1.046       .  S
C1925      C1928   1.404       .  A
C1925      C1932   1.410       .  A
N1926      H1941   1.045       .  S
N1926      H1942   1.045   1_565  S
C1928      H2721   1.084   1_545  S
C1928      C1929   1.410       .  A
C1929      C1930   1.414       .  A
C1929      N1934   1.438   1_545  S
C1930      C1931   1.405       .  A
C1931      H1935   1.084       .  S
C1931      C1932   1.408       .  A
C1932      N1936   1.438       .  S
H1933      C2716   1.083       .  S
N1934      H2725   1.046       .  S
N1934      H1938   1.046       .  S
N1936      H1939   1.046       .  S
N1936      H1940   1.045       .  S
H1937      N2722   1.045       .  S
C1945      C1946   1.414       .  A
C1945      C1950   1.405       .  A
C1946      C1947   1.395       .  A
C1946      N1951   1.433       .  S
C1947      H1952   1.084       .  S
C1947      C1948   1.400       .  A
C1948      C1953   1.473       .  S
C1948      C1949   1.408       .  A
C1949      C1950   1.404       .  A
C1949      N1954   1.438       .  S
C1950      H1955   1.084       .  S
N1951      H2759   1.044   1_556  S
N1951      H2760   1.045       .  S
C1953      C1956   1.400       .  A
C1953      C1960   1.409       .  A
N1954      H1969   1.044       .  S
N1954      H1970   1.047       .  S
C1956      H1961   1.084       .  S
C1956      C1957   1.401       .  A
C1957      C1958   1.410       .  A
C1957      N1962   1.433       .  S
C1958      C1959   1.402       .  A
C1959      H1963   1.084       .  S
C1959      C1960   1.403       .  A
C1960      N1964   1.438       .  S
N1962      H1965   1.045       .  S
N1962      H1966   1.046       .  S
N1964      H1967   1.044       .  S
N1964      H1968   1.047       .  S
H1971      N2739   1.043   1_554  S
H1972      N2739   1.045       .  S
C1973      C1974   1.416       .  A
C1973      C1978   1.408       .  A
C1974      C1975   1.404       .  A
C1974      N1979   1.432       .  S
C1975      H1980   1.084       .  S
C1975      C1976   1.401       .  A
C1976      C1981   1.482       .  S
C1976      C1977   1.409       .  A
C1977      C1978   1.403       .  A
C1977      N1982   1.438       .  S
C1978      H1983   1.083       .  S
N1979      H1999   1.046       .  S
N1979      H2000   1.046       .  S
C1981      C1984   1.404       .  A
C1981      C1988   1.406       .  A
N1982      H1997   1.045       .  S
N1982      H1998   1.046       .  S
C1984      H1989   1.084       .  S
C1984      C1985   1.408       .  A
C1985      C1986   1.412       .  A
C1985      N1990   1.437       .  S
C1986      C1987   1.404       .  A
C1987      H1991   1.084       .  S
C1987      C1988   1.399       .  A
C1988      N1992   1.433       .  S
N1992      H1995   1.046       .  S
N1992      H1996   1.046       .  S
C2001      C2006   1.405       .  A
C2002      C2003   1.406       .  A
C2002      N2007   1.438       .  S
C2003      H2008   1.084       .  S
C2003      C2004   1.401       .  A
C2004      C2009   1.483       .  S
C2005      C2006   1.409       .  A
C2005      N2010   1.437       .  S
C2006      H2011   1.083       .  S
N2007      H2027   1.045       .  S
N2007      H2028   1.046       .  S
C2009      C2012   1.400       .  A
C2009      C2016   1.410       .  A
N2010      H2025   1.045       .  S
N2010      H2026   1.046       .  S
C2012      H2017   1.084       .  S
C2012      C2013   1.406       .  A
C2013      C2014   1.416       .  A
C2013      N2018   1.438       .  S
C2014      C2015   1.404       .  A
C2015      H2019   1.084       .  S
C2015      C2016   1.410       .  A
C2016      N2020   1.438       .  S
N2018      H2021   1.045       .  S
N2018      H2022   1.046       .  S
N2020      H2023   1.045       .  S
N2020      H2024   1.044       .  S
C2029      C2030   1.414       .  A
C2029      C2034   1.405       .  A
C2030      C2031   1.409       .  A
C2031      H2036   1.084       .  S
C2031      C2032   1.403       .  A
C2032      C2037   1.480       .  S
C2032      C2033   1.415       .  A
C2033      C2034   1.399       .  A
C2033      N2038   1.440       .  S
C2034      H2039   1.084       .  S
N2035      H2055   1.046       .  S
N2035      H2056   1.045       .  S
C2037      C2040   1.404       .  A
C2037      C2044   1.407       .  A
N2038      H2053   1.046       .  S
N2038      H2054   1.043       .  S
C2040      H2045   1.084       .  S
C2040      C2041   1.410       .  A
C2041      C2042   1.411       .  A
C2041      N2046   1.438       .  S
C2042      C2043   1.405       .  A
C2043      H2047   1.084       .  S
C2043      C2044   1.402       .  A
C2044      N2048   1.438       .  S
N2046      H2049   1.046       .  S
N2046      H2050   1.046       .  S
N2048      H2051   1.045       .  S
N2048      H2052   1.045       .  S
C2057      C2058   1.409       .  A
C2057      C2062   1.404       .  A
C2058      C2059   1.409       .  A
C2058      N2063   1.437       .  S
C2059      H2064   1.084       .  S
C2059      C2060   1.404       .  A
C2060      C2065   1.478       .  S
C2060      C2061   1.408       .  A
C2061      C2062   1.403       .  A
C2061      N2066   1.439       .  S
C2062      H2067   1.084       .  S
N2063      H2083   1.046       .  S
N2063      H2084   1.046       .  S
C2065      C2068   1.402   1_655  A
C2065      C2072   1.409       .  A
N2066      H2081   1.046       .  S
N2066      H2082   1.044       .  S
C2069      N2074   1.437       .  S
C2070      C2071   1.404       .  A
C2071      H2075   1.084       .  S
C2071      C2072   1.405       .  A
C2072      N2076   1.438       .  S
N2074      H2077   1.046       .  S
N2074      H2078   1.045       .  S
N2076      H2079   1.045       .  S
N2076      H2080   1.045       .  S
C2085      C2874   1.412       .  A
C2085      C2090   1.405       .  A
C2086      C2873   1.412       .  A
C2086      C2087   1.408       .  A
C2086      N2091   1.437       .  S
C2087      H2092   1.084       .  S
C2087      C2088   1.403       .  A
C2088      C2093   1.479       .  S
C2088      C2877   1.408   1_545  A
C2089      C2876   1.407       .  A
C2089      C2090   1.402       .  A
C2089      N2094   1.438       .  S
C2090      H2095   1.083       .  S
N2091      H2111   1.045       .  S
N2091      H2112   1.046       .  S
C2093      C2096   1.402       .  A
C2093      C2100   1.409       .  A
N2094      H2109   1.046       .  S
N2094      H2110   1.044       .  S
C2096      H2101   1.084       .  S
C2096      C2097   1.407       .  A
C2097      C2098   1.412       .  A
C2097      N2102   1.438       .  S
C2098      C2099   1.404       .  A
C2099      H2103   1.084       .  S
C2099      C2100   1.405       .  A
C2100      N2104   1.438       .  S
N2102      H2105   1.046       .  S
N2102      H2106   1.046       .  S
N2104      H2107   1.046       .  S
N2104      H2108   1.043       .  S
C2113      C2114   1.416       .  A
C2113      C2118   1.406       .  A
C2114      C2115   1.411       .  A
C2114      N2119   1.438       .  S
C2115      H2120   1.084       .  S
C2115      C2116   1.402       .  A
C2116      C2121   1.485       .  S
C2116      C2117   1.409       .  A
C2117      C2118   1.408       .  A
C2117      N2122   1.438       .  S
C2118      H2123   1.084       .  S
N2119      H2139   1.045       .  S
N2119      H2140   1.046       .  S
C2121      C2124   1.404       .  A
C2121      C2128   1.409       .  A
N2122      H2137   1.045       .  S
N2122      H2138   1.045       .  S
C2124      H2129   1.084       .  S
C2124      C2125   1.410       .  A
C2125      C2126   1.413       .  A
C2125      N2130   1.438       .  S
C2126      C2127   1.406       .  A
C2127      H2131   1.083       .  S
C2127      C2128   1.405       .  A
C2128      N2132   1.438       .  S
N2130      H2133   1.046       .  S
N2130      H2134   1.046       .  S
N2132      H2135   1.045       .  S
N2132      H2136   1.044       .  S
C2141      C2543   1.489       .  S
C2141      C2142   1.412   1_565  A
C2141      C2146   1.405       .  A
C2142      C2143   1.401       .  A
C2142      N2147   1.433       .  S
C2143      H2148   1.084       .  S
C2143      C2144   1.401       .  A
C2144      C2149   1.482       .  S
C2144      C2145   1.411   1_545  A
C2145      C2146   1.407       .  A
C2145      N2150   1.437       .  S
C2146      H2939   1.083       .  S
N2147      H2955   1.046       .  S
N2147      H2168   1.046       .  S
C2149      C2152   1.403       .  A
C2149      C2156   1.408       .  A
N2150      H2165   1.046       .  S
N2150      H2166   1.046       .  S
H2151      C2934   1.084       .  S
C2152      H2157   1.084       .  S
C2152      C2153   1.407       .  A
C2153      C2154   1.413       .  A
C2153      N2158   1.437       .  S
C2154      C2155   1.407       .  A
C2155      H2159   1.083       .  S
C2155      C2156   1.403       .  A
C2156      N2948   1.439       .  S
N2158      H2161   1.046       .  S
N2158      H2162   1.046       .  S
N2160      C2944   1.438       .  S
N2160      H2163   1.046       .  S
N2160      H2164   1.046       .  S
H2167      N2935   1.046       .  S
C2169      C2170   1.415       .  A
C2169      C2174   1.406       .  A
C2170      C2171   1.401       .  A
C2170      N2175   1.433       .  S
C2171      H2176   1.084       .  S
C2171      C2172   1.402       .  A
C2172      C2177   1.486       .  S
C2172      C2173   1.412       .  A
C2173      C2174   1.405       .  A
C2173      N2178   1.438       .  S
C2174      H2179   1.083       .  S
N2175      H2195   1.046       .  S
N2175      H2196   1.045       .  S
C2177      C2180   1.403       .  A
C2177      C2184   1.412       .  A
N2178      H2193   1.045       .  S
N2178      H2194   1.046       .  S
C2180      H2185   1.084       .  S
C2180      C2181   1.399       .  A
C2181      C2182   1.417       .  A
C2181      N2186   1.439       .  S
C2182      C2183   1.404       .  A
C2183      H2187   1.083       .  S
C2183      C2184   1.404       .  A
C2184      N2188   1.438       .  S
N2186      H2189   1.046       .  S
N2186      H2190   1.041       .  S
N2188      H2191   1.046       .  S
N2188      H2192   1.045       .  S
C2197      C2198   1.415       .  A
C2197      C2990   1.407       .  A
C2198      C2987   1.404       .  A
C2198      N2203   1.438       .  S
C2199      H2204   1.084       .  S
C2199      C2986   1.407   1_545  A
C2199      C2200   1.400       .  A
C2200      C2205   1.484       .  S
C2200      C2201   1.411       .  A
C2201      C2202   1.409       .  A
C2201      N2206   1.438       .  S
C2202      H2207   1.082       .  S
C2202      C2985   1.406       .  A
N2203      H2223   1.046       .  S
N2203      H2224   1.045       .  S
C2205      C2208   1.400       .  A
C2205      C2212   1.411       .  A
N2206      H2221   1.046       .  S
N2206      H2222   1.044       .  S
C2208      H3001   1.084   1_545  S
C2208      C2209   1.405       .  A
C2209      C2210   1.415       .  A
C2209      N2214   1.438       .  S
C2210      C2211   1.404       .  A
C2211      H2215   1.084       .  S
C2211      C2212   1.410       .  A
C2212      N2216   1.438       .  S
H2213      C2996   1.084       .  S
N2214      H3005   1.046   1_545  S
N2214      H2218   1.046       .  S
N2216      H2219   1.045       .  S
N2216      H2220   1.044       .  S
H2217      N3002   1.045       .  S
C2225      C2226   1.409       .  A
C2225      C2230   1.404       .  A
C2226      C2227   1.405       .  A
C2226      N2231   1.438       .  S
C2227      H2232   1.083       .  S
C2227      C2228   1.402       .  A
C2228      C2233   1.478       .  S
C2228      C2229   1.410       .  A
C2229      C2230   1.407       .  A
C2229      N2234   1.438       .  S
C2230      H2235   1.084       .  S
N2231      H2251   1.046       .  S
N2231      H2252   1.046       .  S
C2233      C2236   1.402       .  A
C2233      C2240   1.409       .  A
N2234      H2249   1.046       .  S
N2234      H2250   1.044       .  S
C2236      H2241   1.084       .  S
C2236      C2237   1.407       .  A
C2237      C2238   1.411       .  A
C2237      N2242   1.437       .  S
C2238      C2239   1.404       .  A
C2239      H2243   1.083       .  S
C2239      C2240   1.405       .  A
C2240      N2244   1.438       .  S
N2242      H2245   1.046       .  S
N2242      H2246   1.045       .  S
N2244      H2247   1.046       .  S
N2244      H2248   1.044       .  S
C2253      C2254   1.412       .  A
C2253      C2258   1.402       .  A
C2254      C2255   1.403       .  A
C2254      N2259   1.438       .  S
C2255      H2260   1.084       .  S
C2255      C2256   1.399       .  A
C2256      C2261   1.472       .  S
C2256      C2257   1.409       .  A
C2257      C2258   1.405       .  A
C2257      N2262   1.438   1_655  S
C2258      H2263   1.084       .  S
N2259      H2279   1.045       .  S
N2259      H2280   1.046       .  S
C2261      C2264   1.400       .  A
N2262      H2277   1.045       .  S
N2262      H2278   1.044       .  S
C2264      H2269   1.084       .  S
C2264      C2265   1.401       .  A
C2265      C2266   1.409   1_655  A
C2265      N2270   1.437       .  S
C2267      H2271   1.084       .  S
C2267      C2268   1.405       .  A
C2268      N2272   1.438       .  S
N2270      H2273   1.046       .  S
N2270      H2274   1.046       .  S
N2272      H2275   1.046       .  S
N2272      H2276   1.046       .  S
C2281      C2282   1.413       .  A
C2281      C2286   1.404       .  A
C2282      C2283   1.404       .  A
C2282      N2287   1.438       .  S
C2283      H2288   1.084       .  S
C2283      C2284   1.399       .  A
C2284      C2289   1.480       .  S
C2284      C2285   1.411       .  A
C2285      C2286   1.410       .  A
C2285      N2290   1.438       .  S
C2286      H2291   1.084       .  S
N2287      H2307   1.046       .  S
N2287      H2308   1.045       .  S
C2289      C2292   1.401       .  A
C2289      C2296   1.409       .  A
N2290      H2305   1.046       .  S
N2290      H2306   1.044       .  S
C2292      H2297   1.084       .  S
C2292      C2293   1.406       .  A
C2293      C2294   1.412       .  A
C2293      N2298   1.438       .  S
C2294      C2295   1.404       .  A
C2295      H2299   1.084       .  S
C2295      C2296   1.406       .  A
C2296      N2300   1.438       .  S
N2298      H2301   1.046       .  S
N2298      H2302   1.045       .  S
N2300      H2303   1.045       .  S
N2300      H2304   1.045       .  S
C2309      C2310   1.413       .  A
C2309      C2314   1.406       .  A
C2310      C2311   1.409       .  A
C2310      N2315   1.437       .  S
C2311      H2316   1.084       .  S
C2311      C2312   1.403       .  A
C2312      C2317   1.482       .  S
C2312      C2313   1.409       .  A
C2313      C2314   1.404       .  A
C2313      N2318   1.439       .  S
C2314      H2319   1.084       .  S
N2315      H2335   1.045       .  S
N2315      H2336   1.046       .  S
C2317      C2320   1.404       .  A
C2317      C2324   1.408       .  A
N2318      H2333   1.046       .  S
N2318      H2334   1.044       .  S
C2320      H2325   1.084       .  S
C2320      C2321   1.410       .  A
C2321      C2322   1.411       .  A
C2321      N2326   1.437       .  S
C2322      C2323   1.406       .  A
C2323      H2327   1.084       .  S
C2323      C2324   1.405       .  A
C2324      N2328   1.439       .  S
N2326      H2329   1.045       .  S
N2326      H2330   1.046       .  S
N2328      H2331   1.046       .  S
N2328      H2332   1.044       .  S
C2337      C2342   1.402       .  A
C2338      C2339   1.404       .  A
C2338      N2343   1.438       .  S
C2339      H2344   1.084       .  S
C2339      C2340   1.402       .  A
C2340      C2345   1.475       .  S
C2341      C2342   1.397       .  A
C2341      N2346   1.433       .  S
C2342      H2347   1.084       .  S
N2343      H2363   1.046       .  S
N2343      H2364   1.045       .  S
C2345      C2348   1.400       .  A
C2345      C2352   1.406       .  A
N2346      H2361   1.044       .  S
N2346      H2362   1.045       .  S
C2348      H2353   1.084       .  S
C2348      C2349   1.402       .  A
C2349      C2350   1.413       .  A
C2349      N2354   1.438       .  S
C2350      C2351   1.405       .  A
C2351      H2355   1.084       .  S
C2351      C2352   1.402       .  A
C2352      N2356   1.432       .  S
N2354      H2357   1.046       .  S
N2354      H2358   1.046       .  S
N2356      H2359   1.045       .  S
N2356      H2360   1.046       .  S
C2365      N2366   1.359       .  A
C2365      N2370   1.359       .  A
C2365      C3138   1.477       .  S
N2366      C2367   1.357       .  A
C2367      N2368   1.355       .  A
C2367      C2389   1.464       .  S
N2368      C2369   1.357       .  A
C2369      N2370   1.357       .  A
C2369      C2496   1.461       .  S
C2371      N2372   1.363       .  A
C2371      N2376   1.364       .  A
C2371      C3110   1.494       .  S
N2372      C2373   1.359       .  A
C2373      N2374   1.355       .  A
C2373      C2419   1.462       .  S
N2374      C2375   1.354       .  A
C2375      N2376   1.358       .  A
C2375      C2466   1.465       .  S
C2377      N2378   1.360       .  A
C2377      N2382   1.360       .  A
C2377      C3069   1.476       .  S
N2378      C2379   1.360       .  A
C2379      N2380   1.358       .  A
C2379      C2439   1.467       .  S
N2380      C2381   1.357       .  A
C2381      N2382   1.358       .  A
C2381      C2506   1.467       .  S
C2383      N2384   1.357       .  A
C2383      N2388   1.355       .  A
C2383      C3041   1.484       .  S
N2384      C2385   1.358       .  A
C2385      N2386   1.359       .  A
C2385      C2516   1.462       .  S
N2386      C2387   1.358       .  A
C2387      N2388   1.355       .  A
C2387      C2429   1.461       .  S
C2389      C2426   1.459       .  S
N2390      N2407   1.323       .  A
N2390     Co2427   2.079       .  S
C2391      N2416   1.336       .  A
C2391      H2436   1.082       .  S
H2392      C2433   1.082       .  S
C2393      N2417   1.336       .  A
C2393      C2397   1.453       .  S
C2393      H2422   1.082       .  S
Co2394     N2412   2.093       .  S
Co2394     N2402   2.078       .  S
N2395      C2433   1.345       .  A
N2395     Co2396   2.086       .  S
Co2396     N2399   2.082       .  S
Co2396    Cl2438   2.473       .  S
C2397      N2435   1.350       .  A
C2397      C2444   1.461       .  S
N2398      N2405   1.320       .  A
N2398      N2428   1.324       .  A
N2398     Co2431   2.083       .  S
N2399      N2417   1.321       .  A
N2399      N2435   1.326       .  A
N2400      C2429   1.350       .  A
N2400      N2410   1.326       .  A
H2401      C2426   1.082       .  S
N2402      N2423   1.322       .  A
N2403      N2421   1.319       .  A
N2403      N2408   1.327       .  A
C2404      N2408   1.352       .  A
C2404      C2432   1.454       .  S
C2404      C2464   1.464       .  S
N2405      C2420   1.344       .  A
N2405     Co2427   2.089       .  S
C2406      N2434   1.337       .  A
C2406      C2409   1.453       .  S
C2406      H2440   1.082       .  S
C2409      C2452   1.462       .  S
N2411      C2437   1.338       .  A
N2411      N2413   1.321       .  A
N2412      C2426   1.342       .  A
N2413      N2441   1.323       .  A
H2414      C2437   1.082       .  S
H2415      C2432   1.082       .  S
N2417     Co2431   2.081       .  S
N2418      N2430   1.330       .  A
C2419      N2423   1.346       .  A
C2420      C2439   1.462       .  S
C2420      H2424   1.082       .  S
N2421      C2432   1.338       .  A
C2425      N2441   1.346       .  A
C2425      C2437   1.456       .  S
C2425      C2458   1.456       .  S
Co2427    Cl2438   2.471       .  S
N2428      C2439   1.348       .  A
Co2431    Cl2438   2.428       .  S
C2442      N2443   1.360       .  A
C2442      N2447   1.361       .  A
C2442      C3013   1.480       .  S
N2443      C2444   1.357       .  A
C2444      N2445   1.354       .  A
N2445      C2446   1.353       .  A
C2446      N2447   1.359       .  A
C2446      C2486   1.463       .  S
C2448      N2449   1.362       .  A
C2448      N2453   1.361       .  A
C2448      C2998   1.482       .  S
N2449      C2450   1.359       .  A
C2450      N2451   1.354       .  A
C2450      C2474   1.463       .  S
N2451      C2452   1.354       .  A
C2452      N2453   1.356       .  A
C2454      N2455   1.358       .  A
C2454      N2459   1.357       .  A
C2454      C2957   1.481       .  S
N2455      C2456   1.355       .  A
C2456      N2457   1.356       .  A
C2456      C2481   1.459       .  S
N2457      C2458   1.355       .  A
C2458      N2459   1.354       .  A
C2460      N2461   1.359       .  A
C2460      N2465   1.360       .  A
C2460      C2942   1.473       .  S
N2461      C2462   1.357       .  A
C2462      N2463   1.357       .  A
C2462      C2502   1.462       .  S
N2463      C2464   1.356       .  A
C2464      N2465   1.357       .  A
C2466      N2484   1.350       .  A
C2466      C2503   1.457       .  S
N2467      N2484   1.326       .  A
N2467      N2489   1.319       .  A
N2467     Co2504   2.081       .  S
C2468      N2493   1.345       .  A
C2468      C2506   1.462       .  S
C2468      H2513   1.082       .  S
H2469      C2510   1.082       .  S
C2470      N2494   1.338       .  A
C2470      C2474   1.455       .  S
C2470      H2499   1.082       .  S
Co2471     N2489   2.082       .  S
Co2471     N2479   2.087       .  S
Co2471     N2511   2.092       .  S
Co2471     N2487   2.083       .  S
Co2471    Cl2515   2.426       .  S
N2472      C2510   1.341       .  A
N2472      N2479   1.321       .  A
N2472     Co2473   2.078       .  S
Co2473     N2476   2.086       .  S
Co2473     N2493   2.091       .  S
Co2473     N2480   2.084       .  S
Co2473    Cl2515   2.473       .  S
C2474      N2512   1.349       .  A
N2475      N2482   1.320       .  A
N2475      N2505   1.326       .  A
N2475     Co2508   2.091       .  S
N2476      N2494   1.320       .  A
N2476      N2512   1.327       .  A
N2477      C2506   1.347       .  A
N2477      N2487   1.324       .  A
H2478      C2503   1.082       .  S
N2479      N2500   1.322       .  A
N2480      N2498   1.321       .  A
N2480      N2485   1.324       .  A
C2481      N2485   1.350       .  A
C2481      C2509   1.453       .  S
N2482      C2497   1.337       .  A
N2482     Co2504   2.071       .  S
C2483      N2511   1.340       .  A
C2483      C2486   1.460       .  S
C2483      H2517   1.082       .  S
C2486      N2507   1.346       .  A
N2487      N2493   1.320       .  A
N2488      C2514   1.343       .  A
N2488      N2490   1.318       .  A
N2488     Co2504   2.080       .  S
N2489      C2503   1.339       .  A
N2490      N2518   1.323       .  A
N2490     Co2508   2.082       .  S
H2491      C2514   1.082       .  S
H2492      C2509   1.082       .  S
N2494     Co2508   2.080       .  S
N2495      N2507   1.324       .  A
N2495      N2511   1.321       .  A
N2495     Co2504   2.072       .  S
C2496      N2500   1.347       .  A
C2496      C2510   1.458       .  S
C2497      C2516   1.453       .  S
C2497      H2501   1.082       .  S
N2498      C2509   1.338       .  A
N2498     Co2508   2.080       .  S
C2502      N2518   1.348       .  A
C2502      C2514   1.460       .  S
Co2504    Cl2515   2.470       .  S
N2505      C2516   1.350       .  A
Co2508    Cl2515   2.429       .  S
C2519      C3082   1.483       .  S
C2519      C2520   1.418       .  A
C2519      C2524   1.404       .  A
C2520      C2985   1.494   1_565  S
C2520      C2521   1.408   1_565  A
C2521      C2522   1.405   1_545  A
C2522      C2873   1.492   1_565  S
C2522      C2523   1.417       .  A
C2523      C2914   1.488       .  S
C2523      C2524   1.402       .  A
C2524      H2525   1.085       .  S
C2527      C2528   1.415       .  A
C2528      C3026   1.495       .  S
C2528      C2529   1.404       .  A
C2529      H2534   1.084       .  S
C2529      C2530   1.408   1_554  A
C2530      C2817   1.487       .  S
C2530      C2531   1.419       .  A
C2532      H2533   1.085   1_455  S
C2535      C2970   1.484       .  S
C2535      C2536   1.413       .  A
C2535      C2540   1.399       .  A
C2536      C3125   1.484       .  S
C2536      C2537   1.401       .  A
C2537      C2538   1.406       .  A
C2538      C2789   1.492       .  S
C2538      C2539   1.421       .  A
C2539      C2774   1.486       .  S
C2539      C2540   1.402       .  A
C2540      H2541   1.085       .  S
C2543      C2544   1.421       .  A
C2543      C2548   1.409       .  A
C2544      C3097   1.494       .  S
C2544      C2545   1.407       .  A
C2545      H2550   1.083       .  S
C2545      C2546   1.404       .  A
C2546      C2733   1.485   1_554  S
C2546      C2547   1.414       .  A
C2547      C2705   1.489   1_554  S
C2547      C2548   1.400       .  A
C2551      N2552   1.358       .  A
C2551      N2556   1.356       .  A
C2551      C2746   1.475       .  S
N2552      C2553   1.358       .  A
C2553      N2554   1.358       .  A
C2553      C2587   1.464       .  S
N2554      C2555   1.357       .  A
C2555      N2556   1.356       .  A
C2555      C2682   1.461       .  S
C2557      N2558   1.359       .  A
C2557      N2562   1.361       .  A
C2557      C2845   1.473       .  S
N2558      C2559   1.354       .  A
C2559      N2560   1.352       .  A
C2559      C2607   1.456       .  S
N2560      C2561   1.354       .  A
C2561      N2562   1.358       .  A
C2561      C2660   1.459       .  S
C2563      N2564   1.360       .  A
C2563      N2568   1.359       .  A
C2563      C2718   1.486       .  S
N2564      C2565   1.359       .  A
C2565      N2566   1.354       .  A
C2565      C2623   1.462       .  S
N2566      C2567   1.354       .  A
C2567      N2568   1.359       .  A
C2567      C2667   1.459       .  S
C2569      N2570   1.362       .  A
C2569      N2574   1.359       .  A
C2569      C2830   1.482       .  S
N2570      C2571   1.360       .  A
C2571      N2572   1.356       .  A
C2571      C2692   1.465       .  S
N2572      C2573   1.355       .  A
C2573      N2574   1.355       .  A
C2573      C2637   1.459       .  S
C2575      N2576   1.363       .  A
C2575      N2580   1.361       .  A
C2575      C2761   1.488       .  S
N2576      C2577   1.357       .  A
C2577      N2578   1.353       .  A
C2577      C2602   1.466       .  S
N2578      C2579   1.355       .  A
C2579      N2580   1.358       .  A
C2579      C2688   1.459       .  S
C2581      N2582   1.354       .  A
C2581      N2586   1.356       .  A
C2581      C2886   1.471       .  S
N2582      C2583   1.353       .  A
C2583      N2584   1.359       .  A
C2583      C2702   1.464       .  S
N2584      C2585   1.362       .  A
C2585      N2586   1.359       .  A
C2585      C2627   1.464       .  S
C2587      N2605   1.348       .  A
C2587      C2624   1.457       .  S
N2588      N2605   1.324       .  A
N2588      N2610   1.321       .  A
N2588     Co2625   2.077       .  S
C2589      N2614   1.339       .  A
C2589      C2627   1.457       .  S
C2589      H2634   1.082       .  S
H2590      C2631   1.082       .  S
C2591      N2615   1.337       .  A
C2591      C2595   1.457       .  S
C2591      H2620   1.082       .  S
Co2592     N2610   2.088       .  S
Co2592     N2600   2.073       .  S
Co2592     N2632   2.067       .  S
Co2592     N2608   2.089       .  S
Co2592    Cl2636   2.428       .  S
N2593      C2631   1.345       .  A
N2593      N2600   1.318       .  A
N2593     Co2594   2.093       .  S
Co2594     N2597   2.069       .  S
Co2594     N2614   2.074       .  S
Co2594     N2601   2.092       .  S
Co2594    Cl2636   2.469       .  S
C2595      N2633   1.346       .  A
C2595      C2650   1.458       .  S
N2596      N2603   1.319       .  A
N2596      N2626   1.322       .  A
N2596     Co2629   2.077       .  S
N2597      N2615   1.321       .  A
N2597      N2633   1.324       .  A
N2598      C2627   1.348       .  A
N2598      N2608   1.325       .  A
H2599      C2624   1.082       .  S
N2600      N2621   1.323       .  A
N2601      N2619   1.320       .  A
N2601      N2606   1.327       .  A
C2602      N2606   1.350       .  A
C2602      C2630   1.456       .  S
N2603      C2618   1.342       .  A
N2603     Co2625   2.082       .  S
C2604      N2632   1.335       .  A
C2604      C2607   1.451       .  S
C2604      H2638   1.082       .  S
C2607      N2628   1.350       .  A
N2608      N2614   1.320       .  A
N2609      C2635   1.338       .  A
N2609      N2611   1.321       .  A
N2609     Co2625   2.071       .  S
N2610      C2624   1.341       .  A
N2611      N2639   1.325       .  A
N2611     Co2629   2.097       .  S
H2612      C2635   1.082       .  S
H2613      C2630   1.082       .  S
N2615     Co2629   2.088       .  S
N2616      N2628   1.326       .  A
N2616      N2632   1.318       .  A
N2616     Co2625   2.083       .  S
C2617      N2621   1.346       .  A
C2617      C2631   1.464       .  S
C2617      C2644   1.465       .  S
C2618      C2637   1.461       .  S
C2618      H2622   1.082       .  S
N2619      C2630   1.340       .  A
N2619     Co2629   2.080       .  S
C2623      N2639   1.351       .  A
C2623      C2635   1.452       .  S
Co2625    Cl2636   2.469       .  S
N2626      C2637   1.346       .  A
Co2629    Cl2636   2.428       .  S
C2640      N2641   1.363       .  A
C2640      N2645   1.360       .  A
C2640      C2802   1.490       .  S
N2641      C2642   1.360       .  A
C2642      N2643   1.359       .  A
C2642      C2652   1.470       .  S
N2643      C2644   1.357       .  A
C2644      N2645   1.355       .  A
C2646      N2647   1.364       .  A
C2646      N2651   1.360       .  A
C2646      C2901   1.476       .  S
N2647      C2648   1.359       .  A
C2648      N2649   1.350       .  A
C2648      C2672   1.464       .  S
N2649      C2650   1.350       .  A
C2650      N2651   1.358       .  A
C2652      N2670   1.353       .  A
C2652      C2689   1.454       .  S
N2653      N2670   1.329       .  A
N2653      N2675   1.319       .  A
C2654      N2679   1.344       .  A
C2654      C2692   1.459       .  S
C2654      H2699   1.082       .  S
H2655      C2696   1.082       .  S
C2656      N2680   1.334       .  A
C2656      C2660   1.451       .  S
C2656      H2685   1.082       .  S
Co2657     N2697   2.088       .  S
Co2657     N2673   2.087       .  S
Co2657    Cl2701   2.427       .  S
N2658      C2696   1.337       .  A
N2658      N2665   1.322       .  A
Co2659     N2679   2.084       .  S
Co2659    Cl2701   2.474       .  S
C2660      N2698   1.351       .  A
N2661      N2668   1.322       .  A
N2661      N2691   1.327       .  A
N2662      N2680   1.319       .  A
N2662      N2698   1.328       .  A
N2663      C2692   1.348       .  A
N2663      N2673   1.323       .  A
H2664      C2689   1.082       .  S
N2665      N2686   1.325       .  A
N2666      N2684   1.321       .  A
N2666      N2671   1.322       .  A
C2667      N2671   1.344       .  A
C2667      C2695   1.460       .  S
N2668      C2683   1.337       .  A
C2669      N2697   1.337       .  A
C2669      C2672   1.457       .  S
C2669      H2703   1.082       .  S
C2672      N2693   1.348       .  A
N2673      N2679   1.320       .  A
N2674      C2700   1.342       .  A
N2674      N2676   1.319       .  A
N2675      C2689   1.339       .  A
N2676      N2704   1.322       .  A
N2676     Co2694   2.078       .  S
H2677      C2700   1.082       .  S
H2678      C2695   1.082       .  S
N2681      N2693   1.327       .  A
N2681      N2697   1.322       .  A
N2681     Co2690   2.081       .  S
C2682      N2686   1.349       .  A
C2682      C2696   1.455       .  S
C2683      C2702   1.456       .  S
C2683      H2687   1.081       .  S
N2684      C2695   1.341       .  A
N2684     Co2694   2.092       .  S
C2688      N2704   1.347       .  A
C2688      C2700   1.458       .  S
Co2690    Cl2701   2.474       .  S
N2691      C2702   1.349       .  A
C2705      C2706   1.408   1_565  A
C2706      N2711   1.431       .  S
C2707      H2712   1.084       .  S
C2707      C2708   1.404       .  A
C2708      C2713   1.487       .  S
C2708      C2709   1.415       .  A
C2709      C2710   1.400       .  A
C2709      N2714   1.432       .  S
C2710      H2715   1.084       .  S
N2711      H2731   1.045       .  S
N2711      H2732   1.046       .  S
C2713      C2716   1.403       .  A
C2713      C2720   1.410       .  A
N2714      H2729   1.044       .  S
N2714      H2730   1.045       .  S
C2716      C2717   1.408       .  A
C2717      C2718   1.415       .  A
C2717      N2722   1.438       .  S
C2718      C2719   1.405       .  A
C2719      H2723   1.084       .  S
C2719      C2720   1.405       .  A
C2720      N2724   1.438       .  S
N2722      H2726   1.046       .  S
N2724      H2727   1.046       .  S
N2724      H2728   1.045       .  S
C2733      C2734   1.416       .  A
C2733      C2738   1.404       .  A
C2734      C2735   1.399       .  A
C2734      N2739   1.433       .  S
C2735      H2740   1.084       .  S
C2735      C2736   1.401       .  A
C2736      C2741   1.475       .  S
C2736      C2737   1.407       .  A
C2737      C2738   1.402       .  A
C2737      N2742   1.438       .  S
C2738      H2743   1.083       .  S
C2741      C2744   1.400       .  A
C2741      C2748   1.408       .  A
N2742      H2757   1.045       .  S
N2742      H2758   1.046       .  S
C2744      H2749   1.084       .  S
C2744      C2745   1.403       .  A
C2745      C2746   1.412       .  A
C2745      N2750   1.438       .  S
C2746      C2747   1.405       .  A
C2747      H2751   1.084       .  S
C2747      C2748   1.405       .  A
C2748      N2752   1.438       .  S
N2750      H2753   1.046       .  S
N2750      H2754   1.045       .  S
N2752      H2755   1.044       .  S
N2752      H2756   1.048       .  S
C2761      C2762   1.414       .  A
C2761      C2766   1.407       .  A
C2762      C2763   1.406       .  A
C2762      N2767   1.432       .  S
C2763      H2768   1.084       .  S
C2763      C2764   1.402       .  A
C2764      C2769   1.481       .  S
C2764      C2765   1.409       .  A
C2765      C2766   1.403       .  A
C2765      N2770   1.439       .  S
C2766      H2771   1.083       .  S
N2767      H2787   1.045       .  S
N2767      H2788   1.046       .  S
C2769      C2772   1.403       .  A
C2769      C2776   1.406       .  A
N2770      H2785   1.045       .  S
N2770      H2786   1.046       .  S
C2772      H2777   1.084       .  S
C2772      C2773   1.407       .  A
C2773      C2774   1.412       .  A
C2773      N2778   1.437       .  S
C2774      C2775   1.405       .  A
C2775      H2779   1.084       .  S
C2775      C2776   1.400       .  A
C2776      N2780   1.432       .  S
N2780      H2783   1.045       .  S
N2780      H2784   1.046       .  S
C2789      C2794   1.405       .  A
C2790      C2791   1.406       .  A
C2790      N2795   1.438       .  S
C2791      H2796   1.084       .  S
C2791      C2792   1.402       .  A
C2792      C2797   1.485       .  S
C2793      C2794   1.406       .  A
C2793      N2798   1.438       .  S
C2794      H2799   1.083       .  S
N2795      H2815   1.046       .  S
N2795      H2816   1.045       .  S
C2797      C2800   1.399       .  A
C2797      C2804   1.410       .  A
N2798      H2813   1.045       .  S
N2798      H2814   1.045       .  S
C2800      H2805   1.084       .  S
C2800      C2801   1.405       .  A
C2801      C2802   1.420       .  A
C2801      N2806   1.439       .  S
C2802      C2803   1.406       .  A
C2803      H2807   1.083       .  S
C2803      C2804   1.408       .  A
C2804      N2808   1.437       .  S
N2806      H2809   1.046       .  S
N2806      H2810   1.046       .  S
N2808      H2811   1.045       .  S
N2808      H2812   1.046       .  S
C2817      C2818   1.412       .  A
C2817      C2822   1.403       .  A
C2818      C2819   1.408       .  A
C2819      H2824   1.084       .  S
C2819      C2820   1.404       .  A
C2820      C2825   1.483       .  S
C2820      C2821   1.417       .  A
C2821      C2822   1.400       .  A
C2821      N2826   1.439       .  S
C2822      H2827   1.084       .  S
N2823      H2843   1.046       .  S
N2823      H2844   1.045       .  S
C2825      C2828   1.403       .  A
C2825      C2832   1.410       .  A
N2826      H2841   1.045       .  S
N2826      H2842   1.043       .  S
C2828      H2833   1.084       .  S
C2828      C2829   1.409       .  A
C2829      C2830   1.410       .  A
C2829      N2834   1.437       .  S
C2830      C2831   1.406       .  A
C2831      H2835   1.084       .  S
C2831      C2832   1.405       .  A
C2832      N2836   1.439       .  S
N2834      H2837   1.045       .  S
N2834      H2838   1.046       .  S
N2836      H2839   1.046       .  S
N2836      H2840   1.044       .  S
C2845      C2846   1.408       .  A
C2845      C2850   1.407       .  A
C2846      C2847   1.403       .  A
C2846      N2851   1.437       .  S
C2847      H2852   1.084       .  S
C2847      C2848   1.401       .  A
C2848      C2853   1.473       .  S
C2848      C2849   1.408       .  A
C2849      C2850   1.404       .  A
C2849      N2854   1.439       .  S
C2850      H2855   1.084       .  S
N2851      H2871   1.045       .  S
N2851      H2872   1.046       .  S
C2853      C2856   1.402   1_655  A
C2853      C2860   1.409       .  A
N2854      H2869   1.046       .  S
N2854      H2870   1.043       .  S
C2857      N2862   1.437       .  S
C2858      C2859   1.404       .  A
C2859      H2863   1.084       .  S
C2859      C2860   1.402       .  A
C2860      N2864   1.439       .  S
N2862      H2865   1.046       .  S
N2862      H2866   1.045       .  S
N2864      H2867   1.046       .  S
N2864      H2868   1.043       .  S
C2873      C2878   1.406   1_545  A
C2874      C2875   1.404       .  A
C2874      N2879   1.438       .  S
C2875      H2880   1.084       .  S
C2875      C2876   1.400       .  A
C2876      C2881   1.472       .  S
C2877      C2878   1.403       .  A
C2877      N2882   1.438       .  S
C2878      H2883   1.082       .  S
N2879      H2899   1.046       .  S
N2879      H2900   1.046       .  S
C2881      C2884   1.403       .  A
C2881      C2888   1.406       .  A
N2882      H2897   1.046       .  S
N2882      H2898   1.044       .  S
C2884      H2889   1.084       .  S
C2884      C2885   1.407       .  A
C2885      C2886   1.410       .  A
C2885      N2890   1.438       .  S
C2886      C2887   1.403       .  A
C2887      H2891   1.084       .  S
C2887      C2888   1.400       .  A
C2888      N2892   1.438       .  S
N2890      H2893   1.046       .  S
N2890      H2894   1.046       .  S
N2892      H2895   1.046       .  S
N2892      H2896   1.044       .  S
C2901      C2902   1.413       .  A
C2901      C2906   1.402       .  A
C2902      C2903   1.409       .  A
C2902      N2907   1.438       .  S
C2903      H2908   1.084       .  S
C2903      C2904   1.403       .  A
C2904      C2909   1.479       .  S
C2904      C2905   1.407       .  A
C2905      C2906   1.404       .  A
C2905      N2910   1.438       .  S
C2906      H2911   1.084       .  S
N2907      H2927   1.045       .  S
N2907      H2928   1.046       .  S
C2909      C2912   1.401       .  A
C2909      C2916   1.409       .  A
N2910      H2925   1.045       .  S
N2910      H2926   1.045       .  S
C2912      H2917   1.084       .  S
C2912      C2913   1.407       .  A
C2913      C2914   1.413       .  A
C2913      N2918   1.438       .  S
C2914      C2915   1.404       .  A
C2915      H2919   1.084   1_565  S
C2915      C2916   1.405       .  A
C2916      N2920   1.438       .  S
N2918      H2921   1.046       .  S
N2918      H2922   1.045       .  S
N2920      H2923   1.046   1_565  S
N2920      H2924   1.045       .  S
C2929      C2930   1.412       .  A
C2929      C2934   1.405       .  A
C2930      C2931   1.407       .  A
C2930      N2935   1.437       .  S
C2931      H2936   1.084       .  S
C2931      C2932   1.402       .  A
C2932      C2937   1.478       .  S
C2932      C2933   1.407       .  A
C2933      C2934   1.404       .  A
C2933      N2938   1.438       .  S
N2935      H2956   1.045       .  S
C2937      C2940   1.403       .  A
C2937      C2944   1.408       .  A
N2938      H2953   1.046       .  S
N2938      H2954   1.045       .  S
C2940      H2945   1.084       .  S
C2940      C2941   1.408       .  A
C2941      C2942   1.409       .  A
C2941      N2946   1.437       .  S
C2942      C2943   1.403       .  A
C2943      H2947   1.084       .  S
C2943      C2944   1.403       .  A
N2946      H2949   1.046       .  S
N2946      H2950   1.046       .  S
N2948      H2951   1.045       .  S
N2948      H2952   1.046       .  S
C2957      C2958   1.414       .  A
C2957      C2962   1.405       .  A
C2958      C2959   1.400       .  A
C2958      N2963   1.433       .  S
C2959      H2964   1.084       .  S
C2959      C2960   1.402       .  A
C2960      C2965   1.481       .  S
C2960      C2961   1.411       .  A
C2961      C2962   1.401       .  A
C2961      N2966   1.438       .  S
C2962      H2967   1.083       .  S
N2963      H2983   1.046       .  S
N2963      H2984   1.046       .  S
C2965      C2968   1.402       .  A
C2965      C2972   1.410       .  A
N2966      H2981   1.045       .  S
N2966      H2982   1.046       .  S
C2968      H2973   1.084       .  S
C2968      C2969   1.399       .  A
C2969      C2970   1.419       .  A
C2969      N2974   1.440       .  S
C2970      C2971   1.404       .  A
C2971      H2975   1.083       .  S
C2971      C2972   1.401       .  A
C2972      N2976   1.438       .  S
N2974      H2977   1.046       .  S
N2974      H2978   1.042       .  S
N2976      H2979   1.045       .  S
N2976      H2980   1.046       .  S
C2985      C2986   1.414   1_545  A
C2986      N2991   1.437       .  S
C2987      H2992   1.084       .  S
C2987      C2988   1.399       .  A
C2988      C2993   1.480       .  S
C2988      C2989   1.411       .  A
C2989      C2990   1.408       .  A
C2989      N2994   1.438       .  S
C2990      H2995   1.083       .  S
N2991      H3011   1.046       .  S
N2991      H3012   1.046       .  S
C2993      C2996   1.398       .  A
C2993      C3000   1.411       .  A
N2994      H3009   1.046       .  S
N2994      H3010   1.043       .  S
C2996      C2997   1.402       .  A
C2997      C2998   1.416       .  A
C2997      N3002   1.439       .  S
C2998      C2999   1.405       .  A
C2999      H3003   1.084       .  S
C2999      C3000   1.410       .  A
C3000      N3004   1.438       .  S
N3002      H3006   1.046       .  S
N3004      H3007   1.046       .  S
N3004      H3008   1.043       .  S
C3013      C3014   1.413       .  A
C3013      C3018   1.405       .  A
C3014      C3015   1.406       .  A
C3014      N3019   1.438       .  S
C3015      H3020   1.084       .  S
C3015      C3016   1.401       .  A
C3016      C3021   1.480       .  S
C3016      C3017   1.409       .  A
C3017      C3018   1.407       .  A
C3017      N3022   1.438       .  S
C3018      H3023   1.084       .  S
N3019      H3039   1.045       .  S
N3019      H3040   1.046       .  S
C3021      C3024   1.401       .  A
C3021      C3028   1.408       .  A
N3022      H3037   1.046       .  S
N3022      H3038   1.044       .  S
C3024      H3029   1.084       .  S
C3024      C3025   1.408       .  A
C3025      C3026   1.415       .  A
C3025      N3030   1.438       .  S
C3026      C3027   1.406       .  A
C3027      H3031   1.083       .  S
C3027      C3028   1.405       .  A
C3028      N3032   1.439       .  S
N3030      H3033   1.046       .  S
N3030      H3034   1.045       .  S
N3032      H3035   1.046       .  S
N3032      H3036   1.044       .  S
C3041      C3042   1.417       .  A
C3041      C3046   1.407       .  A
C3042      C3043   1.402       .  A
C3042      N3047   1.438       .  S
C3043      H3048   1.084       .  S
C3043      C3044   1.399       .  A
C3044      C3049   1.477       .  S
C3044      C3045   1.409       .  A
C3045      C3046   1.405       .  A
C3045      N3050   1.438       .  S
C3046      H3051   1.083       .  S
N3047      H3067   1.046       .  S
N3047      H3068   1.046       .  S
C3049      C3052   1.403       .  A
N3050      H3065   1.045       .  S
N3050      H3066   1.046       .  S
C3052      H3057   1.084       .  S
C3052      C3053   1.402       .  A
C3053      C3054   1.410   1_655  A
C3053      N3058   1.432       .  S
C3055      H3059   1.084       .  S
C3055      C3056   1.403       .  A
C3056      N3060   1.438       .  S
N3058      H3061   1.046       .  S
N3058      H3062   1.045       .  S
N3060      H3063   1.046       .  S
N3060      H3064   1.046       .  S
C3069      C3070   1.411       .  A
C3069      C3074   1.402       .  A
C3070      C3071   1.403       .  A
C3070      N3075   1.438       .  S
C3071      H3076   1.084       .  S
C3071      C3072   1.403       .  A
C3072      C3077   1.491       .  S
C3072      C3073   1.415       .  A
C3073      C3074   1.411       .  A
C3073      N3078   1.437       .  S
C3074      H3079   1.084       .  S
N3075      H3095   1.045       .  S
N3075      H3096   1.045       .  S
C3077      C3080   1.405       .  A
C3077      C3084   1.414       .  A
N3078      H3093   1.046       .  S
N3078      H3094   1.046       .  S
C3080      H3085   1.083       .  S
C3080      C3081   1.407       .  A
C3081      C3082   1.410       .  A
C3081      N3086   1.438       .  S
C3082      C3083   1.401       .  A
C3083      H3087   1.084       .  S
C3083      C3084   1.406       .  A
C3084      N3088   1.438       .  S
N3086      H3089   1.046       .  S
N3086      H3090   1.045   1_565  S
N3088      H3091   1.045       .  S
N3088      H3092   1.046       .  S
C3097      C3098   1.410       .  A
C3097      C3102   1.404       .  A
C3098      C3099   1.405       .  A
C3098      N3103   1.432       .  S
C3099      H3104   1.084       .  S
C3099      C3100   1.405       .  A
C3100      C3105   1.497       .  S
C3100      C3101   1.415       .  A
C3101      C3102   1.411       .  A
C3101      N3106   1.437       .  S
C3102      H3107   1.083       .  S
N3103      H3123   1.046       .  S
N3103      H3124   1.045       .  S
C3105      C3108   1.406       .  A
C3105      C3112   1.412       .  A
N3106      H3121   1.045       .  S
N3106      H3122   1.046       .  S
C3108      H3113   1.083       .  S
C3108      C3109   1.411       .  A
C3109      C3110   1.416       .  A
C3109      N3114   1.438       .  S
C3110      C3111   1.407       .  A
C3111      H3115   1.083       .  S
C3111      C3112   1.407       .  A
C3112      N3116   1.438       .  S
N3114      H3117   1.046       .  S
N3114      H3118   1.046       .  S
N3116      H3119   1.046       .  S
N3116      H3120   1.046       .  S
C3125      C3130   1.403       .  A
C3126      C3127   1.405       .  A
C3126      N3131   1.438       .  S
C3127      H3132   1.084       .  S
C3127      C3128   1.403       .  A
C3128      C3133   1.477       .  S
C3129      C3130   1.397       .  A
C3129      N3134   1.433       .  S
C3130      H3135   1.084       .  S
N3131      H3151   1.046       .  S
N3131      H3152   1.045       .  S
C3133      C3136   1.400       .  A
C3133      C3140   1.406       .  A
N3134      H3149   1.044       .  S
N3134      H3150   1.046       .  S
C3136      H3141   1.084       .  S
C3136      C3137   1.405       .  A
C3137      C3138   1.414       .  A
C3137      N3142   1.438       .  S
C3138      C3139   1.404       .  A
C3139      H3143   1.084       .  S
C3139      C3140   1.402       .  A
C3140      N3144   1.432       .  S
N3142      H3145   1.045       .  S
N3142      H3146   1.046       .  S
N3144      H3147   1.045       .  S
N3144      H3148   1.046       .  S
