geometry optimzed in LAMMPS
_audit_creation_date              2020-12-01 
_audit_creation_method            'lammps2cif' 
_symmetry_space_group_name_H-M    'P1' 
_symmetry_Int_Tables_number       1 
_symmetry_cell_setting            triclinic 
loop_ 
_symmetry_equiv_pos_as_xyz 
  x,y,z 
_cell_length_a                    53.25699451 
_cell_length_b                    53.265464154471026 
_cell_length_c                    53.27729700328088 
_cell_angle_alpha                 90.0091002373389 
_cell_angle_beta                  89.96462478032069 
_cell_angle_gamma                 90.0371131884424 
loop_ 
_atom_site_label 
_atom_site_type_symbol 
_atom_site_fract_x 
_atom_site_fract_y 
_atom_site_fract_z 
_atom_site_charge 
O1          O  0.62424054  0.28923201  0.84190455    -0.73900
O2          O  0.62971619  0.31701691  0.90796361    -0.74000
O3          O  0.65963904  0.28924198  0.87835203    -0.74000
O4          O  0.59399850  0.31723952  0.87140253    -0.74100
O5          O  0.57741223  0.28229350  0.88752570    -0.74000
O6          O  0.64323737  0.25416051  0.89441047    -0.74000
O7          O  0.61288751  0.28217423  0.92406860    -0.74000
O8          O  0.60805151  0.25407845  0.85798547    -0.74000
Ni9        Ni  0.62743849  0.30444641  0.87435134     1.25400
Ni10       Ni  0.60973574  0.26694611  0.89159187     1.25400
C11         C  0.61553725  0.26698392  0.83912074     0.88200
C12         C  0.62266872  0.30396823  0.92688621     0.88200
C13         C  0.66223084  0.26717581  0.88747131     0.88200
C14         C  0.57488894  0.30426800  0.87808160     0.88400
O15         O  0.26410307  0.62941966  0.89470941    -0.73900
O16         O  0.29184036  0.56340064  0.88885667    -0.74000
O17         O  0.29213590  0.59943460  0.92488108    -0.74000
O18         O  0.26395837  0.59370779  0.85885198    -0.74100
O19         O  0.29911883  0.60970589  0.84257346    -0.74000
O20         O  0.32705479  0.61583546  0.90849561    -0.74000
O21         O  0.32680804  0.57957920  0.87235369    -0.74000
O22         O  0.29923815  0.64575393  0.87869131    -0.74000
Ni23       Ni  0.27679149  0.59587758  0.89244867     1.25400
Ni24       Ni  0.31433295  0.61325998  0.87497220     1.25400
C25         C  0.27703075  0.64838300  0.88756685     0.88200
C26         C  0.31371029  0.56061293  0.87925606     0.88200
C27         C  0.31404836  0.60903914  0.92753577     0.88200
C28         C  0.27692872  0.60085149  0.83988168     0.88400
O29         O  0.36187174  0.31305940  0.81675826    -0.73900
O30         O  0.35560366  0.37884661  0.84496896    -0.74000
O31         O  0.32601505  0.34935578  0.81655206    -0.74000
O32         O  0.39149325  0.34241196  0.84527011    -0.74100
O33         O  0.40854850  0.35920420  0.81087061    -0.74000
O34         O  0.34295631  0.36543683  0.78175793    -0.74000
O35         O  0.37268798  0.39532629  0.81043228    -0.74000
O36         O  0.37869329  0.32947954  0.78205823    -0.74000
Ni37       Ni  0.35817245  0.34535970  0.83212998     1.25400
Ni38       Ni  0.37636509  0.36297988  0.79505309     1.25400
C39         C  0.37128036  0.31047467  0.79478336     0.88200
C40         C  0.36273728  0.39790725  0.83217574     0.88200
C41         C  0.32372389  0.35843183  0.79442951     0.88200
C42         C  0.41077488  0.34939199  0.83271329     0.88400
O43         O  0.60718949  0.63220051  0.23406117    -0.73900
O44         O  0.61461725  0.56646824  0.20595919    -0.74000
O45         O  0.64366573  0.59717812  0.23463864    -0.74000
O46         O  0.57803528  0.60185269  0.20545265    -0.74100
O47         O  0.59471787  0.61865539  0.17088335    -0.74000
O48         O  0.66036202  0.61372880  0.19995176    -0.74000
O49         O  0.63161361  0.58310427  0.17145993    -0.74000
O50         O  0.62349379  0.64895062  0.19927106    -0.74000
Ni51       Ni  0.61027609  0.59876458  0.22122653     1.25400
Ni52       Ni  0.62813546  0.61664360  0.18411875     1.25400
C53         C  0.61409174  0.65134876  0.22126683     0.88200
C54         C  0.62456998  0.56397148  0.18421419     0.88200
C55         C  0.66274628  0.60493573  0.22219590     0.88200
C56         C  0.57555335  0.61165985  0.18364374     0.88400
O57         O  0.72154784  0.33197905  0.12075621    -0.73900
O58         O  0.69436499  0.39821684  0.12736815    -0.74000
O59         O  0.72289554  0.36779957  0.15652166    -0.74000
O60         O  0.69312964  0.36224163  0.09138624    -0.74100
O61         O  0.65854462  0.34581660  0.10846550    -0.74000
O62         O  0.68786999  0.35242818  0.17370061    -0.74000
O63         O  0.65954338  0.38222981  0.14438195    -0.74000
O64         O  0.68676273  0.31619961  0.13805529    -0.74000
Ni65       Ni  0.70920544  0.36567161  0.12335672     1.25400
Ni66       Ni  0.67191802  0.34863137  0.14173694     1.25400
C67         C  0.70858794  0.31323725  0.12844224     0.88200
C68         C  0.67263778  0.40109574  0.13729884     0.88200
C69         C  0.71022667  0.36102895  0.17579638     0.88200
C70         C  0.67119733  0.35261883  0.08918432     0.88400
O71         O  0.37810089  0.70810817  0.15870803    -0.73900
O72         O  0.37256255  0.67994441  0.09266356    -0.74000
O73         O  0.34260952  0.70834218  0.12263195    -0.74000
O74         O  0.40838926  0.67986245  0.12907086    -0.74100
O75         O  0.39171517  0.64521206  0.14570500    -0.74000
O76         O  0.32580860  0.67333247  0.13839411    -0.74000
O77         O  0.35586097  0.64515376  0.10898483    -0.74000
O78         O  0.36136157  0.67325691  0.17488712    -0.74000
Ni79       Ni  0.37605323  0.69526672  0.12513240     1.25400
Ni80       Ni  0.35813529  0.65795969  0.14252170     1.25400
C81         C  0.37052087  0.69531745  0.17761240     0.88200
C82         C  0.36278354  0.65811647  0.08996226     0.88200
C83         C  0.32343879  0.69558629  0.12959574     0.88200
C84         C  0.41090776  0.65813086  0.13904689     0.88400
O85         O  0.60760126  0.20631179  0.65897638    -0.73900
O86         O  0.61334193  0.17778669  0.59309376    -0.74000
O87         O  0.57737873  0.17771066  0.62936949    -0.74000
O88         O  0.64315990  0.20634956  0.62305711    -0.74100
O89         O  0.65983452  0.17139333  0.63903036    -0.74000
O90         O  0.59405416  0.14309452  0.64601753    -0.74000
O91         O  0.63006770  0.14309783  0.60954609    -0.74000
O92         O  0.62404615  0.17143107  0.67533570    -0.74000
Ni93       Ni  0.60971362  0.19324001  0.62547859     1.25400
Ni94       Ni  0.62754520  0.15599082  0.64302988     1.25400
C95         C  0.61512339  0.19360124  0.67793834     0.88200
C96         C  0.62315232  0.15597902  0.59047672     0.88200
C97         C  0.57488151  0.15592005  0.63925242     0.88200
C98         C  0.66225699  0.19360151  0.63014835     0.88400
O99         O  0.68392312  0.11442378  0.34107577    -0.73900
O100        O  0.65545939  0.11941966  0.40684365    -0.74000
O101        O  0.68470845  0.14928113  0.37832240    -0.74000
O102        O  0.65469916  0.08447347  0.36945760    -0.74100
O103        O  0.68878052  0.06666697  0.38606784    -0.74000
O104        O  0.71918661  0.13130808  0.39392232    -0.74000
O105        O  0.68968907  0.10156407  0.42308421    -0.74000
O106        O  0.71820460  0.09653012  0.35718844    -0.74000
Ni107      Ni  0.66844802  0.11752850  0.37338215     1.25400
Ni108      Ni  0.70515014  0.09834433  0.39068496     1.25400
C109        C  0.70572854  0.10467333  0.33833983     0.88200
C110        C  0.66803888  0.11167350  0.42579629     0.88200
C111        C  0.70694401  0.15090156  0.38732812     0.88200
C112        C  0.66702872  0.06490380  0.37599802     0.88400
O113        O  0.37933439  0.12987224  0.73643761    -0.73900
O114        O  0.37307487  0.06360050  0.70899777    -0.74000
O115        O  0.40879228  0.10001165  0.70755122    -0.74000
O116        O  0.34393690  0.09361504  0.73804603    -0.74100
O117        O  0.32628575  0.10897891  0.70331084    -0.74000
O118        O  0.39127891  0.11648615  0.67326682    -0.74000
O119        O  0.35566437  0.07961233  0.67444818    -0.74000
O120        O  0.36169338  0.14575348  0.70192659    -0.74000
Ni121      Ni  0.37695805  0.09617365  0.72395297     1.25400
Ni122      Ni  0.35811420  0.11324412  0.68698590     1.25400
C123        C  0.37151234  0.14867106  0.72366055     0.88200
C124        C  0.36291818  0.06070826  0.68738472     0.88200
C125        C  0.41075499  0.10981685  0.68569185     0.88200
C126        C  0.32445580  0.10018858  0.72562297     0.88400
O127        O  0.26362386  0.86516078  0.65720648    -0.73900
O128        O  0.29346075  0.85937706  0.59222818    -0.74000
O129        O  0.26475450  0.82926112  0.62179033    -0.74000
O130        O  0.29247700  0.89544682  0.62810041    -0.74100
O131        O  0.32688954  0.87923238  0.64563581    -0.74000
O132        O  0.29958102  0.81326720  0.63872973    -0.74000
O133        O  0.32806218  0.84316061  0.60938227    -0.74000
O134        O  0.29828461  0.84929793  0.67460951    -0.74000
Ni135      Ni  0.27738008  0.86291651  0.62415581     1.25400
Ni136      Ni  0.31447492  0.84568119  0.64265693     1.25400
C137        C  0.27598034  0.85807816  0.67653073     0.88200
C138        C  0.31550459  0.85006851  0.59007552     0.88200
C139        C  0.27758779  0.81045366  0.62948795     0.88200
C140        C  0.31402929  0.89819334  0.63844544     0.88400
O141        O  0.62140024  0.81647786  0.31223062    -0.73900
O142        O  0.62836585  0.88195736  0.34108234    -0.74000
O143        O  0.59167924  0.84632344  0.34031622    -0.74000
O144        O  0.65790405  0.85191293  0.31314384    -0.74100
O145        O  0.64214481  0.86856743  0.27808652    -0.74000
O146        O  0.57571070  0.86359357  0.30567297    -0.74000
O147        O  0.61243554  0.89893527  0.30626913    -0.74000
O148        O  0.60573453  0.83344857  0.27728894    -0.74000
Ni149      Ni  0.62535101  0.84859371  0.32795671     1.25400
Ni150      Ni  0.60839657  0.86678635  0.29060401     1.25400
C151        C  0.61266930  0.81423346  0.28995157     0.88200
C152        C  0.62191036  0.90122086  0.32823390     0.88200
C153        C  0.57280794  0.85375435  0.32744304     0.88200
C154        C  0.66087631  0.86091553  0.29108078     0.88400
O155        O  0.37737085  0.75659992  0.35726962    -0.73900
O156        O  0.37102773  0.78497327  0.42301512    -0.74000
O157        O  0.34141678  0.75681516  0.39257919    -0.74000
O158        O  0.40744089  0.78491876  0.38725073    -0.74100
O159        O  0.39121379  0.81977533  0.37065765    -0.74000
O160        O  0.32520560  0.79184305  0.37625793    -0.74000
O161        O  0.35454951  0.81974808  0.40647411    -0.74000
O162        O  0.36161476  0.79168422  0.34064796    -0.74000
Ni163      Ni  0.37495089  0.76962795  0.39067998     1.25400
Ni164      Ni  0.35762005  0.80704743  0.37295447     1.25400
C165        C  0.37029402  0.76939159  0.33821388     0.88200
C166        C  0.36120758  0.80676513  0.42557359     0.88200
C167        C  0.32254876  0.76964360  0.38506448     0.88200
C168        C  0.41020360  0.80679169  0.37759901     0.88400
O169        O  0.15842210  0.78775906  0.13833278    -0.73900
O170        O  0.09273651  0.81636173  0.14464334    -0.74000
O171        O  0.12245469  0.78833956  0.17442205    -0.74000
O172        O  0.12881003  0.81585291  0.10844699    -0.74100
O173        O  0.11177335  0.78115107  0.09227979    -0.74000
O174        O  0.10613183  0.75320185  0.15842884    -0.74000
O175        O  0.07599137  0.78147513  0.12856942    -0.74000
O176        O  0.14167755  0.75281086  0.12237454    -0.74000
Ni177      Ni  0.12616801  0.80332792  0.14200798     1.25400
Ni178      Ni  0.10825125  0.76592943  0.12479297     1.25400
C179        C  0.16081626  0.76554180  0.12945945     0.88200
C180        C  0.07356485  0.80349634  0.13794102     0.88200
C181        C  0.11347395  0.76622868  0.17726038     0.88200
C182        C  0.12161343  0.80294115  0.08950127     0.88400
O183        O  0.82723358  0.85283497  0.20242375    -0.73900
O184        O  0.89285282  0.84649867  0.17424670    -0.74000
O185        O  0.86287175  0.81664037  0.20193305    -0.74000
O186        O  0.85700584  0.88289427  0.17477601    -0.74100
O187        O  0.87339746  0.89880959  0.20988446    -0.74000
O188        O  0.87952959  0.83241034  0.23699183    -0.74000
O189        O  0.90954672  0.86286802  0.20901560    -0.74000
O190        O  0.84375156  0.86813382  0.23777126    -0.74000
Ni191      Ni  0.85944808  0.84919398  0.18707792     1.25400
Ni192      Ni  0.87721078  0.86617030  0.22465068     1.25400
C193        C  0.82473365  0.86123281  0.22478052     0.88200
C194        C  0.91197930  0.85333941  0.18706305     0.88200
C195        C  0.87197283  0.81365300  0.22396975     0.88200
C196        C  0.86374532  0.90176285  0.18805754     0.88400
O197        O  0.21514805  0.86342636  0.85634902    -0.73900
O198        O  0.18646280  0.85753538  0.92188882    -0.74000
O199        O  0.21477546  0.82753868  0.89186734    -0.74000
O200        O  0.18667463  0.89346219  0.88583827    -0.74100
O201        O  0.15202739  0.87712395  0.86885353    -0.74000
O202        O  0.17988464  0.81117136  0.87540772    -0.74000
O203        O  0.15172893  0.84101026  0.90528166    -0.74000
O204        O  0.18036819  0.84727834  0.83943157    -0.74000
Ni205      Ni  0.20195951  0.86109587  0.88962678     1.25400
Ni206      Ni  0.16471088  0.84358017  0.87169789     1.25400
C207        C  0.20256560  0.85629819  0.83717705     0.88200
C208        C  0.16456203  0.84795681  0.92442394     0.88200
C209        C  0.20202637  0.80856296  0.88438915     0.88200
C210        C  0.16496127  0.89614067  0.87583872     0.88400
O211        O  0.15851221  0.10894115  0.81686806    -0.73900
O212        O  0.09181276  0.11547413  0.84310228    -0.74000
O213        O  0.12728126  0.07862953  0.84294765    -0.74000
O214        O  0.12302901  0.14560691  0.81712374    -0.74100
O215        O  0.10783055  0.13050979  0.78110825    -0.74000
O216        O  0.11128277  0.06363846  0.80725428    -0.74000
O217        O  0.07616006  0.10043573  0.80726778    -0.74000
O218        O  0.14273214  0.09404205  0.78103185    -0.74000
Ni219      Ni  0.12569567  0.11264806  0.83133554     1.25400
Ni220      Ni  0.10891596  0.09658252  0.79292313     1.25400
C221        C  0.16151901  0.10061662  0.79451146     0.88200
C222        C  0.07305259  0.10951733  0.82930025     0.88200
C223        C  0.12021606  0.06013901  0.82928791     0.88200
C224        C  0.11492119  0.14898223  0.79475774     0.88400
O225        O  0.76451602  0.13192720  0.12153765    -0.73900
O226        O  0.79278080  0.06617443  0.12845175    -0.74000
O227        O  0.76475797  0.09680913  0.15803646    -0.74000
O228        O  0.79253968  0.10163756  0.09177007    -0.74100
O229        O  0.82751138  0.11824879  0.10781137    -0.74000
O230        O  0.79976995  0.11353347  0.17389319    -0.74000
O231        O  0.82747846  0.08296024  0.14491588    -0.74000
O232        O  0.79980545  0.14863087  0.13682587    -0.74000
Ni233      Ni  0.77740553  0.09848411  0.12434788     1.25400
Ni234      Ni  0.81489909  0.11639821  0.14139811     1.25400
C235        C  0.77764590  0.15103854  0.12787895     0.88200
C236        C  0.81455338  0.06378448  0.13837710     0.88200
C237        C  0.77772719  0.10438929  0.17681390     0.88200
C238        C  0.81439546  0.11131429  0.08891607     0.88400
O239        O  0.82605345  0.17443958  0.87797623    -0.73900
O240        O  0.89157449  0.14645801  0.87032413    -0.74000
O241        O  0.85609114  0.14650406  0.90726872    -0.74000
O242        O  0.86137611  0.17461768  0.84123249    -0.74100
O243        O  0.87795884  0.20950531  0.85751801    -0.74000
O244        O  0.87279804  0.18136388  0.92344978    -0.74000
O245        O  0.90833192  0.18111559  0.88691638    -0.74000
O246        O  0.84274246  0.20957032  0.89366526    -0.74000
Ni247      Ni  0.85821786  0.15922583  0.87365245     1.25400
Ni248      Ni  0.87612090  0.19659606  0.89100476     1.25400
C249        C  0.82367173  0.19660272  0.88690722     0.88200
C250        C  0.91071933  0.15934339  0.87698409     0.88200
C251        C  0.86305670  0.15954888  0.92623468     0.88200
C252        C  0.87032582  0.19679147  0.83860658     0.88400
O253        O  0.22210763  0.59377704  0.65704256    -0.73900
O254        O  0.19247049  0.59952499  0.59162990    -0.74000
O255        O  0.22060098  0.62975335  0.62152488    -0.74000
O256        O  0.19380869  0.56321844  0.62750130    -0.74100
O257        O  0.15889765  0.57897737  0.64449478    -0.74000
O258        O  0.18560312  0.64524169  0.63864036    -0.74000
O259        O  0.15779256  0.61555846  0.60883946    -0.74000
O260        O  0.18693210  0.60884159  0.67413521    -0.74000
Ni261      Ni  0.20848145  0.59594771  0.62375744     1.25400
Ni262      Ni  0.17105450  0.61265178  0.64210766     1.25400
C263        C  0.20936385  0.60048457  0.67630922     0.88200
C264        C  0.17050952  0.60910555  0.58948250     0.88200
C265        C  0.20748730  0.64836622  0.62924542     0.88200
C266        C  0.17205356  0.56019857  0.63736014     0.88400
O267        O  0.14188398  0.36521442  0.73665084    -0.73900
O268        O  0.07679935  0.35955971  0.70657571    -0.74000
O269        O  0.10605786  0.32948429  0.73555565    -0.74000
O270        O  0.11282310  0.39548048  0.70747139    -0.74100
O271        O  0.13017071  0.37894204  0.67310064    -0.74000
O272        O  0.12327301  0.31321798  0.70098342    -0.74000
O273        O  0.09396929  0.34276874  0.67224142    -0.74000
O274        O  0.15918759  0.34921441  0.70200259    -0.74000
Ni275      Ni  0.10873258  0.36306823  0.72276576     1.25400
Ni276      Ni  0.12723368  0.34549298  0.68582741     1.25400
C277        C  0.16120864  0.35798174  0.72430354     0.88200
C278        C  0.07464140  0.34981917  0.68470275     0.88200
C279        C  0.11380339  0.31055342  0.72290543     0.88200
C280        C  0.12292029  0.39801690  0.68577481     0.88400
O281        O  0.14366015  0.70818071  0.39390941    -0.73900
O282        O  0.07744673  0.68101076  0.38866955    -0.74000
O283        O  0.11393723  0.68013410  0.42426623    -0.74000
O284        O  0.10758777  0.70892445  0.35849793    -0.74100
O285        O  0.12299600  0.67368265  0.34185853    -0.74000
O286        O  0.12984087  0.64527858  0.40731462    -0.74000
O287        O  0.09311083  0.64603429  0.37172215    -0.74000
O288        O  0.15943475  0.67311211  0.37723457    -0.74000
Ni289      Ni  0.11004188  0.69578988  0.39198780     1.25400
Ni290      Ni  0.12686064  0.65825170  0.37397679     1.25400
C291        C  0.16236571  0.69519865  0.38626477     0.88200
C292        C  0.07437218  0.65926246  0.37890885     0.88200
C293        C  0.12350894  0.65817892  0.42657273     0.88200
C294        C  0.11437861  0.69596169  0.33940375     0.88400
O295        O  0.84177041  0.25455987  0.62192102    -0.73900
O296        O  0.90822176  0.28164482  0.62668155    -0.74000
O297        O  0.87824080  0.25382804  0.65698894    -0.74000
O298        O  0.87155470  0.28249731  0.59139924    -0.74100
O299        O  0.85565055  0.31741033  0.60823263    -0.74000
O300        O  0.86297437  0.28901453  0.67385510    -0.74000
O301        O  0.89267130  0.31667710  0.64358948    -0.74000
O302        O  0.82613788  0.28963269  0.63868273    -0.74000
Ni303      Ni  0.87551847  0.26691492  0.62359658     1.25400
Ni304      Ni  0.85883124  0.30447043  0.64165366     1.25400
C305        C  0.82308319  0.26754785  0.62965668     0.88200
C306        C  0.91139892  0.30340244  0.63640992     0.88200
C307        C  0.87162397  0.26671319  0.67618085     0.88200
C308        C  0.86219866  0.30452235  0.58903017     0.88400
O309        O  0.82638169  0.61439747  0.31658457    -0.73900
O310        O  0.89164293  0.61986650  0.34645752    -0.74000
O311        O  0.86328874  0.64966820  0.31709129    -0.74000
O312        O  0.85446939  0.58455328  0.34616004    -0.74100
O313        O  0.87176179  0.56722023  0.31215764    -0.74000
O314        O  0.87987377  0.63243654  0.28267620    -0.74000
O315        O  0.90848572  0.60240473  0.31229085    -0.74000
O316        O  0.84348267  0.59726482  0.28236821    -0.74000
Ni317      Ni  0.85836420  0.61773044  0.33281534     1.25400
Ni318      Ni  0.87655367  0.59917247  0.29619682     1.25400
C319        C  0.82427498  0.60502548  0.29453554     0.88200
C320        C  0.91081627  0.61229765  0.33406181     0.88200
C321        C  0.87282179  0.65176707  0.29512591     0.88200
C322        C  0.86132027  0.56515385  0.33373992     0.88400
O323        O  0.76575450  0.33168246  0.39344008    -0.73900
O324        O  0.79354973  0.39768854  0.38734812    -0.74000
O325        O  0.76586817  0.36714447  0.35741604    -0.74000
O326        O  0.79361562  0.36198163  0.42351669    -0.74100
O327        O  0.82852696  0.34532712  0.40740743    -0.74000
O328        O  0.80113542  0.35128537  0.34124719    -0.74000
O329        O  0.82863772  0.38144905  0.37120300    -0.74000
O330        O  0.80079085  0.31525792  0.37736450    -0.74000
Ni331      Ni  0.77847655  0.36522041  0.39102941     1.25400
Ni332      Ni  0.81606229  0.34775963  0.37376597     1.25400
C333        C  0.77858160  0.31266457  0.38626987     0.88200
C334        C  0.81549764  0.40045124  0.37793949     0.88200
C335        C  0.77893451  0.36005067  0.33851323     0.88200
C336        C  0.81554073  0.35251778  0.42631927     0.88400
C337        C  0.85659463  0.49973180  0.34723357     0.20800
C338        C  0.86108247  0.47406407  0.34359440    -0.39000
C339        C  0.84616859  0.45773597  0.35783632     0.19800
C340        C  0.82789527  0.46629722  0.37422175     0.22500
C341        C  0.82354551  0.49203684  0.37805964    -0.39600
C342        C  0.83873879  0.50841051  0.36402161     0.21200
N343        N  0.86737573  0.51889261  0.33490876    -0.32800
C344        C  0.85649615  0.53999063  0.34399869    -0.10400
C345        C  0.83865053  0.53426954  0.36235193    -0.29200
N346        N  0.81508465  0.44691901  0.38412427    -0.45800
C347        C  0.82542627  0.42592707  0.37406653    -0.05100
C348        C  0.84499457  0.43191874  0.35775277    -0.22400
H349        H  0.87480492  0.46729099  0.33022240     0.19400
H350        H  0.80904881  0.49879580  0.39059888     0.18200
H351        H  0.82643561  0.54718200  0.37220280     0.14400
H352        H  0.85601392  0.41916061  0.34640594     0.14300
H353        H  0.88085442  0.51765834  0.32073728     0.32500
H354        H  0.79982824  0.44792709  0.39640503     0.35200
C355        C  0.84684488  0.33312605  0.48216443     0.20800
C356        C  0.86220991  0.31751686  0.49674544    -0.39000
C357        C  0.85913739  0.31961145  0.52278186     0.19800
C358        C  0.84237117  0.33632763  0.53351759     0.22500
C359        C  0.82687716  0.35185004  0.51892246    -0.39600
C360        C  0.82963415  0.34942752  0.49284308     0.21200
N361        N  0.84476741  0.33314774  0.45705759    -0.32800
C362        C  0.82577746  0.34918078  0.45169971    -0.10400
C363        C  0.81595230  0.35984653  0.47351465    -0.29200
N364        N  0.84208539  0.33375371  0.55860309    -0.45800
C365        C  0.85845165  0.31497794  0.56379485    -0.05100
C366        C  0.86951042  0.30573540  0.54195076    -0.22400
H367        H  0.87491435  0.30402841  0.48840422     0.19400
H368        H  0.81302220  0.36417066  0.52724006     0.18200
H369        H  0.80023145  0.37262193  0.47507223     0.14400
H370        H  0.88271717  0.29038847  0.54027159     0.14300
H371        H  0.85472521  0.32190824  0.44443448     0.32500
H372        H  0.83061428  0.34335363  0.57129827     0.35200
C373        C  0.96681801  0.63259954  0.36448514     0.20800
C374        C  0.98171997  0.64867115  0.37908848    -0.39000
C375        C  0.00772424  0.64609052  0.37592546     0.19800
C376        C  0.01808569  0.62866209  0.35965024     0.22500
C377        C  0.00320066  0.61275108  0.34489731    -0.39600
C378        C  0.97721042  0.61549231  0.34788824     0.21200
N379        N  0.94166109  0.63260148  0.36268651    -0.32800
C380        C  0.93607667  0.61570539  0.34450797    -0.10400
C381        C  0.95773125  0.60452856  0.33496004    -0.29200
N382        N  0.04320906  0.63059792  0.35931974    -0.45800
C383        C  0.04885406  0.64958029  0.37527268    -0.05100
C384        C  0.02723956  0.65972297  0.38600735    -0.22400
H385        H  0.97365512  0.66265685  0.39142875     0.19400
H386        H  0.01125021  0.59973517  0.33152672     0.18200
H387        H  0.95909066  0.59112191  0.31974985     0.14400
H388        H  0.02595870  0.67537040  0.39890825     0.14300
H389        H  0.92918126  0.64439565  0.37217143     0.32500
H390        H  0.05567611  0.62028092  0.34822783     0.35200
C391        C  0.01903473  0.32859021  0.65395116     0.20800
C392        C  0.00436909  0.31241055  0.63917960    -0.39000
C393        C  0.97828900  0.31555343  0.64123583     0.19800
C394        C  0.96767591  0.33356951  0.65667693     0.22500
C395        C  0.98231591  0.34949068  0.67169960    -0.39600
C396        C  0.00836040  0.34622076  0.66979165     0.21200
N397        N  0.04415443  0.32853905  0.65634126    -0.32800
C398        C  0.04944609  0.34593934  0.67414498    -0.10400
C399        C  0.02761492  0.35742435  0.68291813    -0.29200
N400        N  0.94251079  0.33219500  0.65600270    -0.45800
C401        C  0.93701500  0.31294796  0.64030150    -0.05100
C402        C  0.95884415  0.30211245  0.63066532    -0.22400
H403        H  0.01263704  0.29806322  0.62740222     0.19400
H404        H  0.97401484  0.36302126  0.68438616     0.18200
H405        H  0.02599705  0.37140517  0.69757570     0.14400
H406        H  0.96029034  0.28606640  0.61828192     0.14300
H407        H  0.05680501  0.31654163  0.64735236     0.32500
H408        H  0.92987486  0.34297867  0.66642978     0.35200
C409        C  0.15637167  0.61455822  0.52415663     0.20800
C410        C  0.15970934  0.61086407  0.49828401    -0.39000
C411        C  0.14521527  0.62627019  0.48259727     0.19800
C412        C  0.12893419  0.64424773  0.49194912     0.22500
C413        C  0.12537914  0.64773334  0.51780804    -0.39600
C414        C  0.13958437  0.63207470  0.53348993     0.21200
N415        N  0.16902895  0.60344773  0.54295087    -0.32800
C416        C  0.16004388  0.61382341  0.56438535    -0.10400
C417        C  0.14150593  0.63157498  0.55925008    -0.29200
N418        N  0.11861726  0.65758568  0.47318306    -0.45800
C419        C  0.12821067  0.64784390  0.45172608    -0.05100
C420        C  0.14474853  0.62819060  0.45682707    -0.22400
H421        H  0.17301911  0.59739696  0.49091003     0.19400
H422        H  0.11289209  0.66196496  0.52518357     0.18200
H423        H  0.13177329  0.64350164  0.57251680     0.14400
H424        H  0.15576669  0.61749885  0.44351191     0.14300
H425        H  0.18337724  0.59019178  0.54127699     0.32500
H426        H  0.10623137  0.67268536  0.47487963     0.35200
C427        C  0.14473285  0.45326426  0.65496746     0.20800
C428        C  0.16136152  0.46756408  0.64037132    -0.39000
C429        C  0.15856787  0.49365328  0.64218297     0.19800
C430        C  0.14034452  0.50462932  0.65712500     0.22500
C431        C  0.12384358  0.49033319  0.67189882    -0.39600
C432        C  0.12688871  0.46423266  0.67037221     0.21200
N433        N  0.14468837  0.42823225  0.65775459    -0.32800
C434        C  0.12706607  0.42322558  0.67541094    -0.10400
C435        C  0.11544765  0.44518542  0.68368354    -0.29200
N436        N  0.14230408  0.52973926  0.65646704    -0.45800
C437        C  0.16212872  0.53477851  0.64130942    -0.05100
C438        C  0.17273621  0.51275404  0.63196473    -0.22400
H439        H  0.17591371  0.45901229  0.62905236     0.19400
H440        H  0.11021265  0.49892390  0.68428622     0.18200
H441        H  0.10123433  0.44702385  0.69809604     0.14400
H442        H  0.18907318  0.51094909  0.62000646     0.14300
H443        H  0.15677985  0.41544006  0.64910029     0.32500
H444        H  0.13148788  0.54262455  0.66656260     0.35200
C445        C  0.87380769  0.21154524  0.77337185     0.20800
C446        C  0.87567143  0.20682014  0.74753360    -0.39000
C447        C  0.87530421  0.22808203  0.73202449     0.19800
C448        C  0.87290352  0.25216460  0.74152250     0.22500
C449        C  0.87138485  0.25691545  0.76736976    -0.39600
C450        C  0.87212070  0.23568317  0.78288892     0.21200
N451        N  0.87324704  0.19455635  0.79199826    -0.32800
C452        C  0.87162327  0.20802906  0.81350606    -0.10400
C453        C  0.87096158  0.23372992  0.80862641    -0.29200
N454        N  0.87172619  0.26903467  0.72284076    -0.45800
C455        C  0.87358450  0.25561038  0.70131558    -0.05100
C456        C  0.87605026  0.23002373  0.70625709    -0.22400
H457        H  0.87704482  0.18797864  0.74004903     0.19400
H458        H  0.86955682  0.27572897  0.77483087     0.18200
H459        H  0.86937274  0.24887613  0.82208068     0.14400
H460        H  0.87729695  0.21485109  0.69279785     0.14300
H461        H  0.87409941  0.17504773  0.79022933     0.32500
H462        H  0.86944848  0.28843554  0.72460707     0.35200
C463        C  0.84484608  0.13291976  0.03333274     0.20800
C464        C  0.86012348  0.14888211  0.01895431    -0.39000
C465        C  0.85793878  0.14628842  0.99285335     0.19800
C466        C  0.84194886  0.12892797  0.98195419     0.22500
C467        C  0.82643468  0.11319998  0.99633451    -0.39600
C468        C  0.82842442  0.11597069  0.02242901     0.21200
N469        N  0.84259654  0.13254708  0.05842400    -0.32800
C470        C  0.82435064  0.11554586  0.06354136    -0.10400
C471        C  0.81504113  0.10477428  0.04157068    -0.29200
N472        N  0.84264451  0.13076262  0.95682803    -0.45800
C473        C  0.85889770  0.14965988  0.95166661    -0.05100
C474        C  0.86886661  0.15980645  0.97366219    -0.22400
H475        H  0.87236411  0.16269903  0.02746147     0.19400
H476        H  0.81334593  0.10019463  0.98781487     0.18200
H477        H  0.80003809  0.09117126  0.03981599     0.14400
H478        H  0.88171874  0.17546189  0.97538815     0.14300
H479        H  0.85212360  0.14395292  0.07123207     0.32500
H480        H  0.83188557  0.12053153  0.94401399     0.35200
C481        C  0.11065785  0.25556604  0.76101067     0.20800
C482        C  0.10964715  0.24156002  0.78331108    -0.39000
C483        C  0.11181779  0.21546185  0.78046418     0.19800
C484        C  0.11446824  0.20424582  0.75715712     0.22500
C485        C  0.11590351  0.21824900  0.73495023    -0.39600
C486        C  0.11398939  0.24429921  0.73782111     0.21200
N487        N  0.10937754  0.28064365  0.75860665    -0.32800
C488        C  0.11227877  0.28529403  0.73376135    -0.10400
C489        C  0.11520859  0.26311527  0.72020359    -0.29200
N490        N  0.11560386  0.17919597  0.75937205    -0.45800
C491        C  0.11403917  0.17440334  0.78427392    -0.05100
C492        C  0.11178736  0.19652297  0.79811191    -0.22400
H493        H  0.10743139  0.25032774  0.80150607     0.19400
H494        H  0.11838043  0.20949938  0.71677824     0.18200
H495        H  0.11814742  0.26107792  0.70020063     0.14400
H496        H  0.11009326  0.19843285  0.81826794     0.14300
H497        H  0.10737989  0.29379856  0.77301523     0.32500
H498        H  0.11766356  0.16615459  0.74486719     0.35200
C499        C  0.96590854  0.12922766  0.85430063     0.20800
C500        C  0.98024189  0.11426314  0.83803584    -0.39000
C501        C  0.00633942  0.11601539  0.84102104     0.19800
C502        C  0.01724543  0.13135339  0.85895615     0.22500
C503        C  0.00293439  0.14663152  0.87489418    -0.39600
C504        C  0.97688037  0.14501823  0.87179747     0.21200
N505        N  0.94082325  0.13158362  0.85472145    -0.32800
C506        C  0.93588229  0.14928952  0.87231120    -0.10400
C507        C  0.95786527  0.15811208  0.88339210    -0.29200
N508        N  0.04236905  0.13009689  0.85768823    -0.45800
C509        C  0.04753074  0.11413836  0.83857959    -0.05100
C510        C  0.02555343  0.10494186  0.82769536    -0.22400
H511        H  0.97172448  0.10244186  0.82387090     0.19400
H512        H  0.01147666  0.15913986  0.88843927     0.18200
H513        H  0.95970234  0.17258877  0.89753308     0.14400
H514        H  0.02388510  0.09240234  0.81179382     0.14300
H515        H  0.92794415  0.12249918  0.84305743     0.32500
H516        H  0.05520392  0.14023727  0.86848624     0.35200
C517        C  0.13487522  0.95220472  0.85478087     0.20800
C518        C  0.11996202  0.96712986  0.83895638    -0.39000
C519        C  0.12269260  0.99318930  0.84194101     0.19800
C520        C  0.13875583  0.00348306  0.85959984     0.22500
C521        C  0.15380622  0.98859200  0.87518482    -0.39600
C522        C  0.15135437  0.96262513  0.87196573     0.21200
N523        N  0.13688216  0.92704657  0.85471695    -0.32800
C524        C  0.15503924  0.92153449  0.87169171    -0.10400
C525        C  0.16447818  0.94322907  0.88284044    -0.29200
N526        N  0.13891906  0.02861333  0.85799609    -0.45800
C527        C  0.12323318  0.03445342  0.83888237    -0.05100
C528        C  0.11262866  0.01286825  0.82842821    -0.22400
H529        H  0.10774454  0.95906827  0.82486328     0.19400
H530        H  0.16703220  0.99666165  0.88833063     0.18200
H531        H  0.17945215  0.94465104  0.89649529     0.14400
H532        H  0.10003352  0.01170114  0.81253350     0.14300
H533        H  0.12731218  0.91449210  0.84307129     0.32500
H534        H  0.14999552  0.04097458  0.86844792     0.35200
C535        C  0.87649390  0.75822503  0.26133756     0.20800
C536        C  0.87813112  0.74405740  0.28345176    -0.39000
C537        C  0.87725316  0.71794191  0.28032943     0.19800
C538        C  0.87529325  0.70674551  0.25694752     0.22500
C539        C  0.87327977  0.72093472  0.23485075    -0.39600
C540        C  0.87381620  0.74707756  0.23800668     0.21200
N541        N  0.87655630  0.78335884  0.25928857    -0.32800
C542        C  0.87359282  0.78823330  0.23450731    -0.10400
C543        C  0.87171681  0.76610270  0.22063943    -0.29200
N544        N  0.87446730  0.68161426  0.25912517    -0.45800
C545        C  0.87539410  0.67688323  0.28409981    -0.05100
C546        C  0.87716491  0.69903323  0.29791357    -0.22400
H547        H  0.87963172  0.75273108  0.30176425     0.19400
H548        H  0.87114820  0.71227342  0.21659577     0.18200
H549        H  0.86918238  0.76421804  0.20057160     0.19200
H550        H  0.87780303  0.70101780  0.31812270     0.14300
H551        H  0.87806898  0.79638440  0.27387422     0.32500
H552        H  0.87237976  0.66855779  0.24463666     0.35200
C553        C  0.84358640  0.95739641  0.15667392     0.20800
C554        C  0.82927376  0.97161154  0.13973692    -0.39000
C555        C  0.83000751  0.99768792  0.14327451     0.19800
C556        C  0.84418702  0.00873029  0.16205483     0.22500
C557        C  0.85825290  0.99450852  0.17916774    -0.39600
C558        C  0.85731887  0.96842941  0.17578337     0.21200
N559        N  0.84501915  0.93226800  0.15805474    -0.32800
C560        C  0.85949950  0.92724891  0.17836002    -0.10400
C561        C  0.86759218  0.94933459  0.18987921    -0.29200
N562        N  0.84117007  0.03373751  0.16194918    -0.45800
C563        C  0.82463669  0.03863422  0.14326866    -0.05100
C564        C  0.81721341  0.01664084  0.13115753    -0.22400
H565        H  0.81793357  0.96296682  0.12526270     0.19400
H566        H  0.86871775  0.00309399  0.19432158     0.18200
H567        H  0.87876332  0.95115162  0.20674792     0.14400
H568        H  0.80383758  0.01474275  0.11598708     0.14300
H569        H  0.83586742  0.91932235  0.14650036     0.32500
H570        H  0.84906246  0.04660203  0.17448829     0.35200
C571        C  0.11121124  0.72880038  0.23268870     0.20800
C572        C  0.11163858  0.70670339  0.24695781    -0.39000
C573        C  0.11177099  0.71004632  0.27304462     0.19800
C574        C  0.11123690  0.73357094  0.28411410     0.22500
C575        C  0.11124494  0.75568322  0.26983636    -0.39600
C576        C  0.11137565  0.75234331  0.24373294     0.21200
N577        N  0.11126944  0.73071624  0.20755344    -0.32800
C578        C  0.11187388  0.75565353  0.20261598    -0.10400
C579        C  0.11200779  0.76974361  0.22466590    -0.29200
N580        N  0.11143708  0.73161708  0.30925730    -0.45800
C581        C  0.11248860  0.70667867  0.31413294    -0.05100
C582        C  0.11276231  0.69264076  0.29205923    -0.22400
H583        H  0.11200752  0.68828025  0.23838879     0.19400
H584        H  0.11132163  0.77410924  0.27840600     0.18200
H585        H  0.11263109  0.78997546  0.22646499     0.14400
H586        H  0.11373408  0.67242738  0.29020804     0.14300
H587        H  0.11154822  0.71600445  0.19458099     0.32500
H588        H  0.11151782  0.74630835  0.32226194     0.35200
C589        C  0.15173776  0.84456577  0.99017850     0.20800
C590        C  0.15606168  0.84863639  0.01585085    -0.39000
C591        C  0.14162183  0.83398919  0.03232558     0.19800
C592        C  0.12442788  0.81641126  0.02387039     0.22500
C593        C  0.11986502  0.81259646  0.99821388    -0.39600
C594        C  0.13408423  0.82744458  0.98174093     0.21200
N595        N  0.16426694  0.85473970  0.97077101    -0.32800
C596        C  0.15439712  0.84414022  0.94983173    -0.10400
C597        C  0.13535782  0.82721050  0.95590670    -0.29200
N598        N  0.11457406  0.80351400  0.04320075    -0.45800
C599        C  0.12543225  0.81309006  0.06411763    -0.05100
C600        C  0.14223995  0.83227901  0.05811803    -0.22400
H601        H  0.17014118  0.86170386  0.02249676     0.19400
H602        H  0.10674192  0.79858034  0.99155009     0.18200
H603        H  0.12489671  0.81527821  0.94321522     0.14400
H604        H  0.15421273  0.84268043  0.07082364     0.14300
H605        H  0.17915415  0.86747689  0.97174479     0.32500
H606        H  0.10176575  0.78870085  0.04218680     0.35200
C607        C  0.01835249  0.83611617  0.15733868     0.20800
C608        C  0.00418072  0.85278773  0.17204840    -0.39000
C609        C  0.97805544  0.84957094  0.17096857     0.19800
C610        C  0.96696263  0.83141119  0.15602783     0.22500
C611        C  0.98111689  0.81464290  0.14150456    -0.39600
C612        C  0.00720615  0.81761704  0.14286884     0.21200
N613        N  0.04347777  0.83409634  0.15649268    -0.32800
C614        C  0.04831138  0.81394125  0.14171414    -0.10400
C615        C  0.02616397  0.80324643  0.13275832    -0.29200
N616        N  0.94197866  0.83133913  0.15915525    -0.45800
C617        C  0.93710703  0.84922242  0.17655447    -0.05100
C618        C  0.95911083  0.86109906  0.18436525    -0.22400
H619        H  0.01288594  0.86663360  0.18410988     0.19400
H620        H  0.97246873  0.79983509  0.13059671     0.18200
H621        H  0.02418522  0.78661261  0.12125280     0.14400
H622        H  0.96104622  0.87556312  0.19850490     0.14300
H623        H  0.05648367  0.84499324  0.16633447     0.32500
H624        H  0.92913639  0.81903283  0.15087880     0.35200
C625        C  0.26823685  0.73071862  0.38594462     0.20800
C626        C  0.25462632  0.70823555  0.38450873    -0.39000
C627        C  0.22850172  0.71067595  0.38617481     0.19800
C628        C  0.21688523  0.73372010  0.38932512     0.22500
C629        C  0.23047057  0.75623931  0.39036563    -0.39600
C630        C  0.25657835  0.75382938  0.38839319     0.21200
N631        N  0.29324670  0.73345209  0.38485083    -0.32800
C632        C  0.29747461  0.75847973  0.38623721    -0.10400
C633        C  0.27510277  0.77186283  0.38832547    -0.29200
N634        N  0.19187736  0.73099668  0.39038342    -0.45800
C635        C  0.18755820  0.70610481  0.38751500    -0.05100
C636        C  0.20990480  0.69277820  0.38482933    -0.22400
H637        H  0.26369865  0.69020962  0.38214981     0.19400
H638        H  0.22137612  0.77429386  0.39239523     0.18200
H639        H  0.27276290  0.79199619  0.38976979     0.14400
H640        H  0.21219249  0.67277888  0.38205106     0.14300
H641        H  0.30660036  0.71923501  0.38284570     0.32500
H642        H  0.17854533  0.74524735  0.39229056     0.35200
C643        C  0.75930238  0.86311823  0.23821533     0.20800
C644        C  0.73356446  0.86359110  0.23279105    -0.39000
C645        C  0.71755992  0.86324471  0.25364872     0.19800
C646        C  0.72651954  0.86203312  0.27801535     0.22500
C647        C  0.75228382  0.86181587  0.28345457    -0.39600
C648        C  0.76830415  0.86262594  0.26259485     0.21200
N649        N  0.77830554  0.86290984  0.22169692    -0.32800
C650        C  0.79953650  0.86262238  0.23565990    -0.10400
C651        C  0.79413048  0.86256090  0.26125718    -0.29200
N652        N  0.70744259  0.86113418  0.29446142    -0.45800
C653        C  0.68623885  0.86214364  0.28045438    -0.05100
C654        C  0.69175099  0.86355683  0.25492646    -0.22400
H655        H  0.72652836  0.86413651  0.21374328     0.19400
H656        H  0.75931989  0.86102705  0.30249362     0.18200
H657        H  0.80728852  0.86186725  0.27671740     0.14400
H658        H  0.67864512  0.86418561  0.23941981     0.14300
H659        H  0.77693498  0.86290351  0.20214156     0.32500
H660        H  0.70874626  0.85996292  0.31398402     0.35200
C661        C  0.51726248  0.83322621  0.35879930     0.20800
C662        C  0.50289860  0.81714961  0.37394041    -0.39000
C663        C  0.47681776  0.82020022  0.37235741     0.19800
C664        C  0.46587795  0.83817440  0.35712412     0.22500
C665        C  0.48025893  0.85414327  0.34178842    -0.39600
C666        C  0.50638177  0.85082005  0.34308165     0.21200
N667        N  0.54227782  0.83290491  0.35582450    -0.32800
C668        C  0.54743924  0.85004572  0.33775620    -0.10400
C669        C  0.52552890  0.86171671  0.32935533    -0.29200
N670        N  0.44072120  0.83638874  0.35801865    -0.45800
C671        C  0.43562632  0.81689358  0.37359434    -0.05100
C672        C  0.45767717  0.80638013  0.38299101    -0.22400
H673        H  0.51139501  0.80276410  0.38549172     0.19400
H674        H  0.47170282  0.86755688  0.32916237     0.18200
H675        H  0.52378221  0.87566157  0.31468704     0.14400
H676        H  0.45947632  0.79020547  0.39515227     0.14300
H677        H  0.55497375  0.82091568  0.36473022     0.32500
H678        H  0.42784035  0.84697944  0.34770253     0.35200
C679        C  0.25969476  0.86132918  0.74130798     0.20800
C680        C  0.26384662  0.86202321  0.76726629    -0.39000
C681        C  0.24223587  0.86114168  0.78224469     0.19800
C682        C  0.21832816  0.85943072  0.77216542     0.22500
C683        C  0.21414996  0.85918228  0.74618480    -0.39600
C684        C  0.23575898  0.86032236  0.73119323     0.21200
N685        N  0.27713071  0.86082408  0.72310976    -0.32800
C686        C  0.26415873  0.85979761  0.70128671    -0.10400
C687        C  0.23833008  0.85963848  0.70550813    -0.29200
N688        N  0.20103649  0.85754988  0.79043672    -0.45800
C689        C  0.21406847  0.85834170  0.81225128    -0.05100
C690        C  0.23977077  0.86073237  0.80792792    -0.22400
H691        H  0.28253169  0.86274879  0.77521745     0.19400
H692        H  0.19550100  0.85778153  0.73823934     0.18200
H693        H  0.22350423  0.85835932  0.69167686     0.14400
H694        H  0.25466895  0.86139351  0.82172406     0.14300
H695        H  0.29661422  0.86099660  0.72537585     0.32500
H696        H  0.18163176  0.85573399  0.78822335     0.35200
C697        C  0.24461582  0.70383583  0.62691234     0.20800
C698        C  0.26672752  0.71806088  0.62732239    -0.39000
C699        C  0.26342597  0.74412292  0.62757072     0.19800
C700        C  0.23990924  0.75520462  0.62712469     0.22500
C701        C  0.21775358  0.74096150  0.62717685    -0.39600
C702        C  0.22106292  0.71485728  0.62722336     0.21200
N703        N  0.24273133  0.67872812  0.62689934    -0.32800
C704        C  0.21782292  0.67375704  0.62764278    -0.10400
C705        C  0.20366655  0.69576009  0.62790712    -0.29200
N706        N  0.24193014  0.78033362  0.62718321    -0.45800
C707        C  0.26689410  0.78516681  0.62802828    -0.05100
C708        C  0.28089601  0.76309818  0.62840572    -0.22400
H709        H  0.28513839  0.70946855  0.62756497     0.19400
H710        H  0.19934010  0.74955192  0.62731389     0.18200
H711        H  0.18343071  0.69750482  0.62865387     0.14400
H712        H  0.30111757  0.76122841  0.62918914     0.14300
H713        H  0.25745851  0.66578402  0.62707882     0.32500
H714        H  0.22727916  0.79336484  0.62720363     0.35200
C715        C  0.32921140  0.84734290  0.52462859     0.20800
C716        C  0.32480829  0.85119202  0.49896148    -0.39000
C717        C  0.33973273  0.83698994  0.48258540     0.19800
C718        C  0.35746216  0.82002593  0.49114031     0.22500
C719        C  0.36211023  0.81644106  0.51680787    -0.39600
C720        C  0.34737481  0.83084399  0.53318958     0.21200
N721        N  0.31618733  0.85702445  0.54391221    -0.32800
C722        C  0.32618107  0.84669190  0.56488961    -0.10400
C723        C  0.34587978  0.83049361  0.55900537    -0.29200
N724        N  0.36781260  0.80747298  0.47187038    -0.45800
C725        C  0.35679308  0.81672284  0.45090275    -0.05100
C726        C  0.33928329  0.83526717  0.45679827    -0.22400
H727        H  0.31031602  0.86374605  0.49225196     0.19400
H728        H  0.37564552  0.80287331  0.52353678     0.18200
H729        H  0.35657590  0.81886869  0.57177180     0.14400
H730        H  0.32705921  0.84526678  0.44402543     0.14300
H731        H  0.30083909  0.86918207  0.54281748     0.32500
H732        H  0.38113888  0.79314438  0.47294071     0.35200
C733        C  0.25930293  0.09633148  0.74049369     0.20800
C734        C  0.23347853  0.09634704  0.73553849    -0.39000
C735        C  0.21783185  0.09671817  0.75665359     0.19800
C736        C  0.22715068  0.09727493  0.78090424     0.22500
C737        C  0.25304996  0.09683813  0.78589092    -0.39600
C738        C  0.26875016  0.09624750  0.76470779     0.21200
N739        N  0.27796483  0.09735132  0.72360338    -0.32800
C740        C  0.29949844  0.09773504  0.73708351    -0.10400
C741        C  0.29458626  0.09681489  0.76280975    -0.29200
N742        N  0.20828482  0.09876010  0.79762957    -0.45800
C743        C  0.18688491  0.09882190  0.78384725    -0.05100
C744        C  0.19208011  0.09748109  0.75825360    -0.22400
H745        H  0.22610894  0.09653455  0.71661029     0.19400
H746        H  0.26042298  0.09739720  0.80481002     0.18200
H747        H  0.30803985  0.09749744  0.77801457     0.14400
H748        H  0.17879912  0.09761494  0.74288204     0.14300
H749        H  0.27616023  0.09813013  0.70410587     0.32500
H750        H  0.20984503  0.09968604  0.81714645     0.35200
C751        C  0.34234405  0.00499558  0.65626522     0.20800
C752        C  0.32743891  0.99066652  0.63990795    -0.39000
C753        C  0.32872258  0.96456752  0.64317148     0.19800
C754        C  0.34394813  0.95361923  0.66115202     0.22500
C755        C  0.35861892  0.96794524  0.67768885    -0.39600
C756        C  0.35713313  0.99403705  0.67459778     0.21200
N757        N  0.34341997  0.03014019  0.65785682    -0.32800
C758        C  0.35871241  0.03523791  0.67755163    -0.10400
C759        C  0.36770702  0.01318784  0.68842826    -0.29200
N760        N  0.34128316  0.92856376  0.66098755    -0.45800
C761        C  0.32395023  0.92351032  0.64307041    -0.05100
C762        C  0.31565266  0.94548156  0.63150671    -0.22400
H763        H  0.31527611  0.99923549  0.62608235     0.19400
H764        H  0.36991267  0.95941712  0.69225797     0.18200
H765        H  0.37964843  0.01141171  0.70476293     0.14400
H766        H  0.30154424  0.94727658  0.61700522     0.14300
H767        H  0.33349869  0.04302721  0.64689924     0.32500
H768        H  0.34997129  0.91575142  0.67302447     0.35200
C769        C  0.72281261  0.21578624  0.39187001     0.20800
C770        C  0.71835998  0.24170074  0.39303292    -0.39000
C771        C  0.73970985  0.25701300  0.39141858     0.19800
C772        C  0.76364641  0.24728233  0.38856678     0.22500
C773        C  0.76814325  0.22133008  0.38780753    -0.39600
C774        C  0.74680178  0.20598989  0.38972477     0.21200
N775        N  0.70558975  0.19736784  0.39172285    -0.32800
C776        C  0.71871812  0.17568809  0.38975679    -0.10400
C777        C  0.74448676  0.18024040  0.38869687    -0.29200
N778        N  0.78061933  0.26584134  0.38635655    -0.45800
C779        C  0.76738887  0.28750286  0.38811731    -0.05100
C780        C  0.74184138  0.28276262  0.39138147    -0.22400
H781        H  0.69961811  0.24938521  0.39464657     0.19400
H782        H  0.78681864  0.21366118  0.38550326     0.18200
H783        H  0.75938674  0.16662139  0.38638995     0.14400
H784        H  0.72681200  0.29634224  0.39296953     0.14300
H785        H  0.68610146  0.19941600  0.39253527     0.32500
H786        H  0.79996658  0.26390729  0.38379699     0.35200
C787        C  0.74388271  0.10071942  0.28340221     0.20800
C788        C  0.76621338  0.10019599  0.26940021    -0.39000
C789        C  0.76326782  0.10098497  0.24324333     0.19800
C790        C  0.73986319  0.10176193  0.23194956     0.22500
C791        C  0.71758872  0.10258618  0.24594256    -0.39600
C792        C  0.72054293  0.10223005  0.27205913     0.21200
N793        N  0.74156235  0.10083981  0.30851425    -0.32800
C794        C  0.71661101  0.10287572  0.31310368    -0.10400
C795        C  0.70289536  0.10379856  0.29086226    -0.29200
N796        N  0.74207737  0.10251853  0.20686589    -0.45800
C797        C  0.76705912  0.10268407  0.20214971    -0.05100
C798        C  0.78092788  0.10176498  0.22433814    -0.22400
H799        H  0.78450981  0.09961719  0.27821601     0.19400
H800        H  0.69931806  0.10379944  0.23714051     0.18200
H801        H  0.68275807  0.10555002  0.28876312     0.14400
H802        H  0.80115292  0.10179482  0.22633365     0.14300
H803        H  0.75606174  0.10025101  0.32170225     0.32500
H804        H  0.72751758  0.10354005  0.19377838     0.35200
C805        C  0.65345747  0.99960720  0.37067614     0.20800
C806        C  0.65726980  0.97386305  0.37458158    -0.39000
C807        C  0.64284568  0.95779981  0.35956084     0.19800
C808        C  0.62618530  0.96670901  0.34172499     0.22500
C809        C  0.62221686  0.99248607  0.33795301    -0.39600
C810        C  0.63638595  0.00857113  0.35325758     0.21200
N811        N  0.66587243  0.01861816  0.38159063    -0.32800
C812        C  0.65655320  0.03986313  0.37120138    -0.10400
C813        C  0.63795824  0.03441053  0.35358233    -0.29200
N814        N  0.61603503  0.94762095  0.32873537    -0.45800
C815        C  0.62616972  0.92644059  0.33852550    -0.05100
C816        C  0.64283781  0.93200581  0.35791242    -0.22400
H817        H  0.67085107  0.96686197  0.38796344     0.19400
H818        H  0.60944875  0.99949299  0.32379711     0.18200
H819        H  0.62795465  0.04749004  0.34168996     0.14400
H820        H  0.65428280  0.91900706  0.36852573     0.14300
H821        H  0.68031530  0.01720059  0.39476087     0.32500
H822        H  0.60347597  0.94894018  0.31375084     0.35200
C823        C  0.71676149  0.23248651  0.62858976     0.20800
C824        C  0.73051646  0.25488937  0.63038547    -0.39000
C825        C  0.75668365  0.25233643  0.62906628     0.19800
C826        C  0.76821387  0.22926525  0.62585051     0.22500
C827        C  0.75448075  0.20682966  0.62439860    -0.39600
C828        C  0.72833637  0.20934650  0.62608036     0.21200
N829        N  0.69171352  0.22982512  0.62973270    -0.32800
C830        C  0.68736370  0.20480052  0.62838424    -0.10400
C831        C  0.70971779  0.19137800  0.62615657    -0.29200
N832        N  0.79327739  0.23186367  0.62519439    -0.45800
C833        C  0.79775624  0.25670846  0.62835998    -0.05100
C834        C  0.77540893  0.27011361  0.63087640    -0.22400
H835        H  0.72151976  0.27293502  0.63287277     0.19400
H836        H  0.76350210  0.18873487  0.62240301     0.18200
H837        H  0.71200495  0.17122822  0.62486994     0.14400
H838        H  0.77319209  0.29010721  0.63374512     0.14300
H839        H  0.67842942  0.24407249  0.63196800     0.32500
H840        H  0.80654193  0.21755520  0.62325574     0.35200
C841        C  0.50920426  0.14296773  0.64417144     0.20800
C842        C  0.48342657  0.14706608  0.64053413    -0.39000
C843        C  0.46728794  0.13187164  0.65478224     0.19800
C844        C  0.47617267  0.11420467  0.67163428     0.22500
C845        C  0.50194529  0.10995694  0.67511969    -0.39600
C846        C  0.51807581  0.12491965  0.66062047     0.21200
N847        N  0.52833281  0.15583939  0.63388322    -0.32800
C848        C  0.54954371  0.14580207  0.64371430    -0.10400
C849        C  0.54391573  0.12634881  0.66033900    -0.29200
N850        N  0.45708729  0.10348332  0.68419106    -0.45800
C851        C  0.43589045  0.11425666  0.67514414    -0.05100
C852        C  0.44146536  0.13191822  0.65662505    -0.22400
H853        H  0.47645541  0.16140300  0.62794888     0.19400
H854        H  0.50892811  0.09640049  0.68853764     0.18200
H855        H  0.55692503  0.11553392  0.67158010     0.14400
H856        H  0.42847731  0.14407384  0.64682131     0.14300
H857        H  0.52702179  0.17092521  0.62145107     0.32500
H858        H  0.45843246  0.09019010  0.69853017     0.35200
C859        C  0.65449848  0.11461019  0.49139190     0.20800
C860        C  0.65834231  0.11029524  0.51709994    -0.39000
C861        C  0.64386077  0.12504384  0.53345085     0.19800
C862        C  0.62708027  0.14291900  0.52483737     0.22500
C863        C  0.62301944  0.14700413  0.49916087    -0.39600
C864        C  0.63726461  0.13207379  0.48283200     0.21200
N865        N  0.66715094  0.10438349  0.47208670    -0.32800
C866        C  0.65775741  0.11534071  0.45113163    -0.10400
C867        C  0.63892440  0.13250923  0.45706453    -0.29200
N868        N  0.61702807  0.15576582  0.54407780    -0.45800
C869        C  0.62731428  0.14587270  0.56512027    -0.05100
C870        C  0.64400776  0.12654436  0.55927406    -0.22400
H871        H  0.67208749  0.09696097  0.52387207     0.19400
H872        H  0.61022414  0.16125247  0.49238992     0.18200
H873        H  0.62883846  0.14470379  0.44433138     0.14400
H874        H  0.65558826  0.11589230  0.57211745     0.14300
H875        H  0.68180083  0.09140211  0.47314558     0.32500
H876        H  0.60444930  0.17075350  0.54293543     0.35200
C877        C  0.37467048  0.73362777  0.23238759     0.20800
C878        C  0.37595932  0.75606118  0.24610400    -0.39000
C879        C  0.37417873  0.75354103  0.27222536     0.19800
C880        C  0.37174376  0.73039936  0.28382385     0.22500
C881        C  0.37009828  0.70798155  0.27008892    -0.39600
C882        C  0.37149973  0.71054741  0.24393075     0.21200
N883        N  0.37531424  0.73105344  0.20732621    -0.32800
C884        C  0.37214221  0.70621393  0.20287156    -0.10400
C885        C  0.36969472  0.69279333  0.22522013    -0.29200
N886        N  0.37057817  0.73308776  0.30885911    -0.45800
C887        C  0.37186431  0.75813236  0.31314905    -0.05100
C888        C  0.37402000  0.77152761  0.29079022    -0.22400
H889        H  0.37789596  0.77416539  0.23708277     0.19400
H890        H  0.36764372  0.68992544  0.27908488     0.18200
H891        H  0.36676837  0.67280515  0.22744113     0.14400
H892        H  0.37530040  0.79167453  0.28846880     0.14300
H893        H  0.37713664  0.74537763  0.19405433     0.32500
H894        H  0.36844367  0.71884044  0.32217562     0.35200
C895        C  0.25807685  0.71030999  0.12675463     0.20800
C896        C  0.23217152  0.70551422  0.12644770    -0.39000
C897        C  0.21664958  0.72676944  0.12628548     0.19800
C898        C  0.22620177  0.75094975  0.12675158     0.22500
C899        C  0.25211627  0.75575317  0.12668601    -0.39600
C900        C  0.26764389  0.73448844  0.12651651     0.21200
N901        N  0.27672182  0.69335775  0.12773098    -0.32800
C902        C  0.29831227  0.70683440  0.12778957    -0.10400
C903        C  0.29344004  0.73254740  0.12691295    -0.29200
N904        N  0.20752813  0.76787200  0.12776107    -0.45800
C905        C  0.18595578  0.75435679  0.12763969    -0.05100
C906        C  0.19085685  0.72866870  0.12656887    -0.22400
H907        H  0.22465468  0.68663108  0.12663169     0.19400
H908        H  0.25962966  0.77463559  0.12704890     0.18200
H909        H  0.30693818  0.74774448  0.12723325     0.14400
H910        H  0.17737689  0.71345291  0.12673760     0.14300
H911        H  0.27488802  0.67384814  0.12840788     0.32500
H912        H  0.20932949  0.78737767  0.12862080     0.35200
C913        C  0.74516561  0.25758365  0.12217097     0.20800
C914        C  0.76701875  0.24315301  0.11955024    -0.39000
C915        C  0.76370100  0.21712642  0.12157422     0.19800
C916        C  0.74034825  0.20631006  0.12543479     0.22500
C917        C  0.71858013  0.22074572  0.12836286    -0.39600
C918        C  0.72195631  0.24675365  0.12673592     0.21200
N919        N  0.74333715  0.28271931  0.12171627    -0.32800
C920        C  0.71885075  0.28782494  0.12634578    -0.10400
C921        C  0.70494209  0.26591135  0.12960525    -0.29200
N922        N  0.74226443  0.18126553  0.12721735    -0.45800
C923        C  0.76706413  0.17619645  0.12505683    -0.05100
C924        C  0.78106279  0.19801317  0.12144791    -0.22400
H925        H  0.78529464  0.25157891  0.11666501     0.19400
H926        H  0.70043183  0.21236583  0.13207086     0.18200
H927        H  0.68509885  0.26425439  0.13369642     0.14400
H928        H  0.80123018  0.19966575  0.11951485     0.14300
H929        H  0.75790195  0.29559122  0.11900377     0.32500
H930        H  0.72777279  0.16851261  0.13074614     0.35200
C931        C  0.72472717  0.36343977  0.24099296     0.20800
C932        C  0.71972900  0.36287935  0.26679869    -0.39000
C933        C  0.74083853  0.36312899  0.28243143     0.19800
C934        C  0.76510732  0.36355632  0.27308913     0.22500
C935        C  0.77011456  0.36452529  0.24723661    -0.39600
C936        C  0.74894818  0.36457790  0.23157560     0.21200
N937        N  0.70791414  0.36232111  0.22229928    -0.32800
C938        C  0.72148133  0.36298361  0.20081441    -0.10400
C939        C  0.74714613  0.36459541  0.20577197    -0.29200
N940        N  0.78187187  0.36251037  0.29189191    -0.45800
C941        C  0.76810057  0.36177379  0.31328488    -0.05100
C942        C  0.74246593  0.36225072  0.30817027    -0.22400
H943        H  0.70080125  0.36196459  0.27415568     0.19400
H944        H  0.78905624  0.36483825  0.23986600     0.18200
H945        H  0.76239975  0.36486945  0.19233887     0.14400
H946        H  0.72712172  0.36144020  0.32147858     0.14300
H947        H  0.68842976  0.36093526  0.22404139     0.32500
H948        H  0.80142148  0.36232137  0.29029943     0.35200
C949        C  0.75927151  0.60224137  0.27878850     0.20800
C950        C  0.73331417  0.60167035  0.28320552    -0.39000
C951        C  0.71810158  0.60237224  0.26175114     0.19800
C952        C  0.72798931  0.60390399  0.23775610     0.22500
C953        C  0.75396630  0.60408501  0.23331605    -0.39600
C954        C  0.76918644  0.60301603  0.25476285     0.21200
N955        N  0.77765136  0.60264162  0.29602762    -0.32800
C956        C  0.79940285  0.60337533  0.28286696    -0.10400
C957        C  0.79494311  0.60340859  0.25708038    -0.29200
N958        N  0.70954551  0.60513588  0.22060336    -0.45800
C959        C  0.68778274  0.60397410  0.23375937    -0.05100
C960        C  0.69234141  0.60219764  0.25947188    -0.22400
H961        H  0.72553607  0.60095597  0.30196595     0.19400
H962        H  0.76174395  0.60518260  0.21457350     0.18200
H963        H  0.80866632  0.60444060  0.24211971     0.14400
H964        H  0.67864733  0.60129133  0.27446515     0.14300
H965        H  0.77555051  0.60257995  0.31551671     0.32500
H966        H  0.71161723  0.60649692  0.20115659     0.35200
C967        C  0.60971699  0.71671433  0.23518605     0.20800
C968        C  0.60930374  0.74257677  0.23016391    -0.39000
C969        C  0.60927419  0.75828309  0.25130053     0.19800
C970        C  0.60995213  0.74890140  0.27553151     0.22500
C971        C  0.60995382  0.72306633  0.28054792    -0.39600
C972        C  0.60965466  0.70737852  0.25944459     0.21200
N973        N  0.61098891  0.69790997  0.21843310    -0.32800
C974        C  0.61146909  0.67649917  0.23216042    -0.10400
C975        C  0.61043932  0.68160440  0.25779292    -0.29200
N976        N  0.61109886  0.76764782  0.29232480    -0.45800
C977        C  0.61081849  0.78913043  0.27873249    -0.05100
C978        C  0.60956009  0.78410153  0.25306475    -0.22400
H979        H  0.60941273  0.74992013  0.21122196     0.19400
H980        H  0.61055176  0.71572587  0.29948138     0.18200
H981        H  0.61114865  0.66829359  0.27312587     0.14400
H982        H  0.60959027  0.79749823  0.23779046     0.14300
H983        H  0.61177581  0.69952969  0.19890978     0.32500
H984        H  0.61211976  0.76594390  0.31182833     0.35200
C985        C  0.47666193  0.64538469  0.14387143     0.20800
C986        C  0.50242005  0.64924457  0.13979029    -0.39000
C987        C  0.51862966  0.63394974  0.15381077     0.19800
C988        C  0.50986347  0.61644359  0.17091251     0.22500
C989        C  0.48409533  0.61244633  0.17485135    -0.39600
C990        C  0.46787391  0.62747032  0.16053195     0.21200
N991        N  0.45748449  0.65820187  0.13365139    -0.32800
C992        C  0.43630587  0.64822133  0.14367632    -0.10400
C993        C  0.44202254  0.62892174  0.16044017    -0.29200
N994        N  0.52907316  0.60555072  0.18312203    -0.45800
C995        C  0.55021751  0.61604799  0.17356535    -0.05100
C996        C  0.54446796  0.63370214  0.15510529    -0.22400
H997        H  0.50933707  0.66341791  0.12697170     0.19400
H998        H  0.47718770  0.59895859  0.18839349     0.18200
H999        H  0.42905777  0.61811967  0.17177433     0.14400
H1000       H  0.55739524  0.64569762  0.14499143     0.14300
H1001       H  0.45874014  0.67312335  0.12099411     0.32500
H1002       H  0.52785536  0.59234766  0.19756676     0.35200
C1003       C  0.64561354  0.50826492  0.15362603     0.20800
C1004       C  0.66181364  0.49367643  0.13885848    -0.39000
C1005       C  0.65915750  0.46762332  0.14138209     0.19800
C1006       C  0.64147440  0.45690994  0.15715854     0.22500
C1007       C  0.62538531  0.47149314  0.17207042    -0.39600
C1008       C  0.62827861  0.49756232  0.16979703     0.21200
N1009       N  0.64562060  0.53337111  0.15590416    -0.32800
C1010       C  0.62852291  0.53866691  0.17398336    -0.10400
C1011       C  0.61720218  0.51683813  0.18301483    -0.29200
N1012       N  0.64347000  0.43178508  0.15698656    -0.45800
C1013       C  0.66276929  0.42650921  0.14125502    -0.05100
C1014       C  0.67300821  0.44836090  0.13111740    -0.22400
H1015       H  0.67597877  0.50200176  0.12688819     0.19400
H1016       H  0.61217333  0.46315626  0.18507916     0.18200
H1017       H  0.60346502  0.51523993  0.19791154     0.14400
H1018       H  0.68889481  0.44995777  0.11853686     0.14300
H1019       H  0.65743360  0.54602062  0.14666190     0.32500
H1020       H  0.63301439  0.41906869  0.16767915     0.35200
C1021       C  0.25828132  0.36120962  0.78006704     0.20800
C1022       C  0.23234874  0.36094597  0.78490606    -0.39000
C1023       C  0.21678807  0.36096127  0.76364593     0.19800
C1024       C  0.22639214  0.36088514  0.73948627     0.22500
C1025       C  0.25226859  0.36151124  0.73467322    -0.39600
C1026       C  0.26779696  0.36182636  0.75588404     0.21200
N1027       N  0.27701806  0.36026568  0.79692082    -0.32800
C1028       C  0.29856377  0.36053176  0.78334238    -0.10400
C1029       C  0.29359148  0.36170359  0.75769419    -0.29200
N1030       N  0.20781638  0.35983609  0.72250401    -0.45800
C1031       C  0.18618821  0.35960133  0.73588021    -0.05100
C1032       C  0.19096409  0.36038013  0.76162953    -0.22400
H1033       H  0.22486080  0.36045690  0.80379223     0.19400
H1034       H  0.25976646  0.36144175  0.71578674     0.18200
H1035       H  0.30702174  0.36156681  0.74243829     0.14400
H1036       H  0.17740997  0.35999403  0.77677245     0.14300
H1037       H  0.27527470  0.35922066  0.81642335     0.32500
H1038       H  0.20972013  0.35934016  0.70300564     0.35200
C1039       C  0.37589810  0.20395815  0.76116071     0.20800
C1040       C  0.37601093  0.21806020  0.78338258    -0.39000
C1041       C  0.37546472  0.24417880  0.78028975     0.19800
C1042       C  0.37533324  0.25541783  0.75685079     0.22500
C1043       C  0.37495148  0.24130495  0.73461404    -0.39600
C1044       C  0.37501136  0.21515977  0.73771966     0.21200
N1045       N  0.37540005  0.17884236  0.75907876    -0.32800
C1046       C  0.37371562  0.17403750  0.73417263    -0.10400
C1047       C  0.37343252  0.19618648  0.72021997    -0.29200
N1048       N  0.37445047  0.28052921  0.75902369    -0.45800
C1049       C  0.37353984  0.28522876  0.78400479    -0.05100
C1050       C  0.37414050  0.26305861  0.79787974    -0.22400
H1051       H  0.37599011  0.20933038  0.80172728     0.19400
H1052       H  0.37413941  0.25002609  0.71628377     0.18200
H1053       H  0.37199200  0.19811722  0.70004788     0.14400
H1054       H  0.37344910  0.26104903  0.81808500     0.14300
H1055       H  0.37541370  0.16579303  0.77371301     0.32500
H1056       H  0.37373125  0.29361975  0.74444342     0.35200
C1057       C  0.23798120  0.70268718  0.88871860     0.20800
C1058       C  0.21543426  0.71617344  0.88691477    -0.39000
C1059       C  0.21784876  0.74237974  0.88669190     0.19800
C1060       C  0.24093918  0.75420878  0.88847253     0.22500
C1061       C  0.26351051  0.74071813  0.88992035    -0.39600
C1062       C  0.26112150  0.71450817  0.88980614     0.21200
N1063       N  0.24077272  0.67764829  0.88862426    -0.32800
C1064       C  0.26586192  0.67350334  0.88914642    -0.10400
C1065       C  0.27921429  0.69601482  0.88993188    -0.29200
N1066       N  0.23816679  0.77925439  0.88815394    -0.45800
C1067       C  0.21317330  0.78340180  0.88588776    -0.05100
C1068       C  0.19986285  0.76086943  0.88477301    -0.22400
H1069       H  0.19737570  0.70693819  0.88556070     0.19400
H1070       H  0.28159944  0.74994934  0.89080793     0.18200
H1071       H  0.29938688  0.69848940  0.89018042     0.14400
H1072       H  0.17977120  0.75838413  0.88296912     0.14300
H1073       H  0.22653454  0.66420819  0.88739182     0.32500
H1074       H  0.25241599  0.79270318  0.88908816     0.35200
C1075       C  0.26349340  0.59869586  0.77423953     0.20800
C1076       C  0.26876140  0.59914439  0.74841289    -0.39000
C1077       C  0.24779413  0.59829838  0.73250006     0.19800
C1078       C  0.22347815  0.59744190  0.74168109     0.22500
C1079       C  0.21823667  0.59665585  0.76747090    -0.39600
C1080       C  0.23919034  0.59716853  0.78335836     0.21200
N1081       N  0.28002633  0.60004046  0.79322455    -0.32800
C1082       C  0.26616015  0.59908440  0.81455279    -0.10400
C1083       C  0.24061327  0.59714880  0.80918085    -0.29200
N1084       N  0.20680760  0.59792602  0.72280985    -0.45800
C1085       C  0.22056195  0.59877635  0.70143348    -0.05100
C1086       C  0.24623287  0.59889712  0.70665774    -0.22400
H1087       H  0.28774965  0.60033151  0.74125439     0.19400
H1088       H  0.19922711  0.59597758  0.77463849     0.18200
H1089       H  0.22516515  0.59649987  0.82237682     0.14400
H1090       H  0.26159429  0.60000684  0.69339084     0.14300
H1091       H  0.29952181  0.60162082  0.79177761     0.32500
H1092       H  0.18725664  0.59779134  0.72436486     0.35200
C1093       C  0.34495119  0.63034812  0.98302144     0.20800
C1094       C  0.36044517  0.64616304  0.99732704    -0.39000
C1095       C  0.35792006  0.64403301  0.02344833     0.19800
C1096       C  0.34142143  0.62721574  0.03445164     0.22500
C1097       C  0.32570886  0.61161697  0.02014517    -0.39600
C1098       C  0.32804160  0.61394101  0.99402320     0.21200
N1099       N  0.34284056  0.62976662  0.95790900    -0.32800
C1100       C  0.32417351  0.61320174  0.95287542    -0.10400
C1101       C  0.31451816  0.60286749  0.97492341    -0.29200
N1102       N  0.34190477  0.62943470  0.05955884    -0.45800
C1103       C  0.35853508  0.64804618  0.06459569    -0.05100
C1104       C  0.36895058  0.65761018  0.04254223    -0.22400
H1105       H  0.37307119  0.65958440  0.98874147     0.19400
H1106       H  0.31221327  0.59906483  0.02872467     0.18200
H1107       H  0.29912604  0.58971454  0.97675536     0.14400
H1108       H  0.38220513  0.67291301  0.04070543     0.14300
H1109       H  0.35268289  0.64083238  0.94503959     0.32500
H1110       H  0.33080261  0.61962784  0.07243080     0.35200
C1111       C  0.34497487  0.50483825  0.85932397     0.20800
C1112       C  0.36109698  0.49038864  0.84431831    -0.39000
C1113       C  0.35829543  0.46430404  0.84641981     0.19800
C1114       C  0.34097148  0.45345584  0.86249678     0.22500
C1115       C  0.32465292  0.46790678  0.87730104    -0.39600
C1116       C  0.32726003  0.49400268  0.87497852     0.21200
N1117       N  0.34301464  0.52996387  0.85969921    -0.32800
C1118       C  0.32368239  0.53517793  0.87539825    -0.10400
C1119       C  0.31339780  0.51323157  0.88536079    -0.29200
N1120       N  0.34126159  0.42835331  0.86024838    -0.45800
C1121       C  0.35856239  0.42320208  0.84231228    -0.05100
C1122       C  0.36965888  0.44513378  0.83327199    -0.22400
H1123       H  0.37435530  0.49884662  0.83143775     0.19400
H1124       H  0.31051971  0.45945554  0.88922264     0.18200
H1125       H  0.29745100  0.51155481  0.89785630     0.14400
H1126       H  0.38349329  0.44685527  0.81847943     0.14300
H1127       H  0.35347980  0.54273194  0.84909320     0.32500
H1128       H  0.32954838  0.41558496  0.86946374     0.35200
C1129       C  0.76876221  0.23435953  0.88924079     0.20800
C1130       C  0.75456319  0.25636819  0.88720363    -0.39000
C1131       C  0.72854334  0.25322944  0.88910916     0.19800
C1132       C  0.71749165  0.23000438  0.89301638     0.22500
C1133       C  0.73168636  0.20793430  0.89475956    -0.39600
C1134       C  0.75771244  0.21103453  0.89255199     0.21200
N1135       N  0.79378900  0.23224206  0.88746730    -0.32800
C1136       C  0.79858580  0.20736404  0.88923207    -0.10400
C1137       C  0.77663302  0.19349820  0.89237813    -0.29200
N1138       N  0.69238039  0.23205395  0.89365056    -0.45800
C1139       C  0.68751619  0.25670246  0.88976163    -0.05100
C1140       C  0.70955394  0.27050499  0.88691500    -0.22400
H1141       H  0.76311414  0.27453171  0.88401111     0.19400
H1142       H  0.72308857  0.18968002  0.89722075     0.18200
H1143       H  0.77479808  0.17333103  0.89408769     0.14400
H1144       H  0.71138855  0.29041433  0.88327275     0.14300
H1145       H  0.80672851  0.24669455  0.88449481     0.32500
H1146       H  0.67937086  0.21752067  0.89581339     0.35200
C1147       C  0.61292353  0.22858106  0.78421543     0.20800
C1148       C  0.61221526  0.20618627  0.77036421    -0.39000
C1149       C  0.61299337  0.20893968  0.74419758     0.19800
C1150       C  0.61407934  0.23222830  0.73269586     0.22500
C1151       C  0.61522323  0.25460510  0.74655713    -0.39600
C1152       C  0.61471060  0.25183591  0.77273499     0.21200
N1153       N  0.61250834  0.23103811  0.80931214    -0.32800
C1154       C  0.61438198  0.25601010  0.81383439    -0.10400
C1155       C  0.61586738  0.26959174  0.79150210    -0.29200
N1156       N  0.61435717  0.22976072  0.70759512    -0.45800
C1157       C  0.61384256  0.20471587  0.70313151    -0.05100
C1158       C  0.61306872  0.19111068  0.72547212    -0.22400
H1159       H  0.61122824  0.18796429  0.77930092     0.19400
H1160       H  0.61648831  0.27281290  0.73762583     0.18200
H1161       H  0.61756896  0.28972356  0.78932139     0.14400
H1162       H  0.61265828  0.17091495  0.72768032     0.14300
H1163       H  0.61149996  0.21660243  0.82255307     0.32500
H1164       H  0.61542989  0.24417284  0.69433175     0.35200
C1165       C  0.64365451  0.33465027  0.98252187     0.20800
C1166       C  0.65915755  0.35035767  0.99687128    -0.39000
C1167       C  0.65683389  0.34788210  0.02294679     0.19800
C1168       C  0.64015822  0.33120460  0.03390879     0.22500
C1169       C  0.62488163  0.31523935  0.01954387    -0.39600
C1170       C  0.62737090  0.31755876  0.99343464     0.21200
N1171       N  0.64318937  0.33262498  0.95742057    -0.32800
C1172       C  0.62677655  0.31387561  0.95228370    -0.10400
C1173       C  0.61648711  0.30400217  0.97425999    -0.29200
N1174       N  0.64230799  0.33171478  0.05902098    -0.45800
C1175       C  0.66076673  0.34851487  0.06401955    -0.05100
C1176       C  0.67022944  0.35905508  0.04201136    -0.22400
H1177       H  0.67248486  0.36312922  0.98835207     0.19400
H1178       H  0.61243724  0.30160854  0.02806509     0.18200
H1179       H  0.60341483  0.28853017  0.97598651     0.14400
H1180       H  0.68548230  0.37237092  0.04017925     0.14300
H1181       H  0.65416064  0.34266139  0.94461526     0.32500
H1182       H  0.63270187  0.32043029  0.07188660     0.35200
C1183       C  0.50926341  0.31703080  0.87404741     0.20800
C1184       C  0.48356308  0.31221677  0.87715939    -0.39000
C1185       C  0.46732976  0.32780071  0.86354641     0.19800
C1186       C  0.47603221  0.34656861  0.84779248     0.22500
C1187       C  0.50174890  0.35162762  0.84496274    -0.39600
C1188       C  0.51799122  0.33617833  0.85877325     0.21200
N1189       N  0.52846011  0.30371540  0.88349186    -0.32800
C1190       C  0.54957157  0.31450557  0.87425466    -0.10400
C1191       C  0.54383640  0.33496876  0.85895209    -0.29200
N1192       N  0.45690251  0.35723507  0.83527900    -0.45800
C1193       C  0.43590153  0.34529214  0.84330541    -0.05100
C1194       C  0.44161307  0.32699941  0.86111937    -0.22400
H1195       H  0.47673359  0.29695422  0.88871305     0.19400
H1196       H  0.50862897  0.36596657  0.83230923     0.18200
H1197       H  0.55676942  0.34653046  0.84835190     0.14400
H1198       H  0.42881826  0.31393165  0.86999982     0.14300
H1199       H  0.52724962  0.28780330  0.89487102     0.32500
H1200       H  0.45811643  0.37123291  0.82160157     0.35200
loop_ 
_geom_bond_atom_site_label_1 
_geom_bond_atom_site_label_2 
_geom_bond_distance 
_geom_bond_site_symmetry_2 
_ccdc_geom_bond_type 
O1           Ni9   1.917       .  S
O1           C11   1.281       .  A
O2           Ni9   1.916       .  S
O2           C12   1.281       .  A
O3           Ni9   1.909       .  S
O3           C13   1.279       .  A
O4           Ni9   1.914       .  S
O4           C14   1.280       .  A
O5          Ni10   1.919       .  S
O5           C14   1.281       .  A
O6          Ni10   1.916       .  S
O6           C13   1.280       .  A
O7          Ni10   1.918       .  S
O7           C12   1.281       .  A
O8          Ni10   1.919       .  S
O8           C11   1.281       .  A
Ni9         Ni10   2.392       .  S
C11        C1154   1.470       .  S
C12        C1172   1.469       .  S
C13        C1139   1.463       .  S
C14        C1190   1.469       .  S
O15         Ni23   1.914       .  S
O15          C25   1.280       .  A
O16         Ni23   1.917       .  S
O16          C26   1.281       .  A
O17         Ni23   1.921       .  S
O17          C27   1.282       .  A
O18         Ni23   1.920       .  S
O18          C28   1.282       .  A
O19         Ni24   1.917       .  S
O19          C28   1.280       .  A
O20         Ni24   1.915       .  S
O20          C27   1.280       .  A
O21         Ni24   1.919       .  S
O21          C26   1.281       .  A
O22         Ni24   1.919       .  S
O22          C25   1.281       .  A
Ni23        Ni24   2.391       .  S
C25        C1064   1.467       .  S
C26        C1118   1.470       .  S
C27        C1100   1.471       .  S
C28        C1082   1.470       .  S
O29         Ni37   1.916       .  S
O29          C39   1.281       .  A
O30         Ni37   1.915       .  S
O30          C40   1.280       .  A
O31         Ni37   1.916       .  S
O31          C41   1.280       .  A
O32         Ni37   1.915       .  S
O32          C42   1.280       .  A
O33         Ni38   1.921       .  S
O33          C42   1.281       .  A
O34         Ni38   1.920       .  S
O34          C41   1.282       .  A
O35         Ni38   1.918       .  S
O35          C40   1.281       .  A
O36         Ni38   1.918       .  S
O36          C39   1.280       .  A
Ni37        Ni38   2.391       .  S
C39        C1049   1.467       .  S
C40        C1121   1.468       .  S
C41        C1028   1.469       .  S
C42        C1193   1.469       .  S
O43         Ni51   1.915       .  S
O43          C53   1.280       .  A
O44         Ni51   1.917       .  S
O44          C54   1.281       .  A
O45         Ni51   1.919       .  S
O45          C55   1.281       .  A
O46         Ni51   1.919       .  S
O46          C56   1.281       .  A
O47         Ni52   1.918       .  S
O47          C56   1.281       .  A
O48         Ni52   1.919       .  S
O48          C55   1.281       .  A
O49         Ni52   1.918       .  S
O49          C54   1.281       .  A
O50         Ni52   1.917       .  S
O50          C53   1.280       .  A
Ni51        Ni52   2.391       .  S
C53         C974   1.467       .  S
C54        C1010   1.469       .  S
C55         C959   1.470       .  S
C56         C995   1.471       .  S
O57         Ni65   1.917       .  S
O57          C67   1.280       .  A
O58         Ni65   1.918       .  S
O58          C68   1.281       .  A
O59         Ni65   1.915       .  S
O59          C69   1.280       .  A
O60         Ni65   1.915       .  S
O60          C70   1.281       .  A
O61         Ni66   1.917       .  S
O61          C70   1.280       .  A
O62         Ni66   1.914       .  S
O62          C69   1.280       .  A
O63         Ni66   1.913       .  S
O63          C68   1.280       .  A
O64         Ni66   1.910       .  S
O64          C67   1.280       .  A
Ni65        Ni66   2.392       .  S
C67         C920   1.464       .  S
C68        C1013   1.468       .  S
C69         C938   1.465       .  S
C70        C1175   1.468       .  S
O71         Ni79   1.918       .  S
O71          C81   1.281       .  A
O72         Ni79   1.922       .  S
O72          C82   1.282       .  A
O73         Ni79   1.918       .  S
O73          C83   1.281       .  A
O74         Ni79   1.920       .  S
O74          C84   1.281       .  A
O75         Ni80   1.921       .  S
O75          C84   1.282       .  A
O76         Ni80   1.920       .  S
O76          C83   1.281       .  A
O77         Ni80   1.916       .  S
O77          C82   1.280       .  A
O78         Ni80   1.915       .  S
O78          C81   1.280       .  A
Ni79        Ni80   2.391       .  S
C81         C884   1.468       .  S
C82        C1103   1.472       .  S
C83         C902   1.470       .  S
C84         C992   1.473       .  S
O85         Ni93   1.919       .  S
O85          C95   1.281       .  A
O86         Ni93   1.921       .  S
O86          C96   1.282       .  A
O87         Ni93   1.921       .  S
O87          C97   1.281       .  A
O88         Ni93   1.917       .  S
O88          C98   1.280       .  A
O89         Ni94   1.917       .  S
O89          C98   1.281       .  A
O90         Ni94   1.917       .  S
O90          C97   1.281       .  A
O91         Ni94   1.916       .  S
O91          C96   1.280       .  A
O92         Ni94   1.916       .  S
O92          C95   1.281       .  A
Ni93        Ni94   2.391       .  S
C95        C1157   1.468       .  S
C96         C869   1.471       .  S
C97         C848   1.472       .  S
C98         C830   1.467       .  S
O99        Ni107   1.915       .  S
O99         C109   1.281       .  A
O100       Ni107   1.915       .  S
O100        C110   1.281       .  A
O101       Ni107   1.918       .  S
O101        C111   1.281       .  A
O102       Ni107   1.918       .  S
O102        C112   1.281       .  A
O103       Ni108   1.915       .  S
O103        C112   1.280       .  A
O104       Ni108   1.916       .  S
O104        C111   1.280       .  A
O105       Ni108   1.920       .  S
O105        C110   1.281       .  A
O106       Ni108   1.917       .  S
O106        C109   1.280       .  A
Ni107      Ni108   2.392       .  S
C109        C794   1.467       .  S
C110        C866   1.469       .  S
C111        C776   1.467       .  S
C112        C812   1.468       .  S
O113       Ni121   1.918       .  S
O113        C123   1.281       .  A
O114       Ni121   1.920       .  S
O114        C124   1.282       .  A
O115       Ni121   1.918       .  S
O115        C125   1.281       .  A
O116       Ni121   1.917       .  S
O116        C126   1.280       .  A
O117       Ni122   1.918       .  S
O117        C126   1.281       .  A
O118       Ni122   1.919       .  S
O118        C125   1.281       .  A
O119       Ni122   1.916       .  S
O119        C124   1.280       .  A
O120       Ni122   1.915       .  S
O120        C123   1.280       .  A
Ni121      Ni122   2.391       .  S
C123       C1046   1.467       .  S
C124        C758   1.471       .  S
C125        C851   1.471       .  S
C126        C740   1.468       .  S
O127       Ni135   1.911       .  S
O127        C137   1.279       .  A
O128       Ni135   1.913       .  S
O128        C138   1.280       .  A
O129       Ni135   1.918       .  S
O129        C139   1.281       .  A
O130       Ni135   1.921       .  S
O130        C140   1.282       .  A
O131       Ni136   1.912       .  S
O131        C140   1.280       .  A
O132       Ni136   1.911       .  S
O132        C139   1.280       .  A
O133       Ni136   1.919       .  S
O133        C138   1.281       .  A
O134       Ni136   1.918       .  S
O134        C137   1.281       .  A
Ni135      Ni136   2.392       .  S
C137        C686   1.464       .  S
C138        C722   1.468       .  S
C139        C707   1.464       .  S
C140        C761   1.469       .  S
O141       Ni149   1.916       .  S
O141        C151   1.281       .  A
O142       Ni149   1.916       .  S
O142        C152   1.281       .  A
O143       Ni149   1.914       .  S
O143        C153   1.280       .  A
O144       Ni149   1.913       .  S
O144        C154   1.279       .  A
O145       Ni150   1.919       .  S
O145        C154   1.281       .  A
O146       Ni150   1.924       .  S
O146        C153   1.282       .  A
O147       Ni150   1.917       .  S
O147        C152   1.280       .  A
O148       Ni150   1.917       .  S
O148        C151   1.281       .  A
Ni149      Ni150   2.391       .  S
C151        C977   1.468       .  S
C152        C815   1.468       .  S
C153        C668   1.471       .  S
C154        C653   1.466       .  S
O155       Ni163   1.915       .  S
O155        C165   1.280       .  A
O156       Ni163   1.918       .  S
O156        C166   1.281       .  A
O157       Ni163   1.914       .  S
O157        C167   1.280       .  A
O158       Ni163   1.921       .  S
O158        C168   1.282       .  A
O159       Ni164   1.917       .  S
O159        C168   1.280       .  A
O160       Ni164   1.914       .  S
O160        C167   1.280       .  A
O161       Ni164   1.917       .  S
O161        C166   1.281       .  A
O162       Ni164   1.917       .  S
O162        C165   1.281       .  A
Ni163      Ni164   2.392       .  S
C165        C887   1.466       .  S
C166        C725   1.469       .  S
C167        C632   1.463       .  S
C168        C671   1.472       .  S
O169       Ni177   1.918       .  S
O169        C179   1.281       .  A
O170       Ni177   1.917       .  S
O170        C180   1.280       .  A
O171       Ni177   1.913       .  S
O171        C181   1.280       .  A
O172       Ni177   1.914       .  S
O172        C182   1.280       .  A
O173       Ni178   1.922       .  S
O173        C182   1.282       .  A
O174       Ni178   1.919       .  S
O174        C181   1.281       .  A
O175       Ni178   1.918       .  S
O175        C180   1.281       .  A
O176       Ni178   1.917       .  S
O176        C179   1.281       .  A
Ni177      Ni178   2.391       .  S
C179        C905   1.469       .  S
C180        C614   1.469       .  S
C181        C578   1.466       .  S
C182        C599   1.470       .  S
O183       Ni191   1.910       .  S
O183        C193   1.279       .  A
O184       Ni191   1.911       .  S
O184        C194   1.279       .  A
O185       Ni191   1.915       .  S
O185        C195   1.280       .  A
O186       Ni191   1.916       .  S
O186        C196   1.280       .  A
O187       Ni192   1.919       .  S
O187        C196   1.281       .  A
O188       Ni192   1.919       .  S
O188        C195   1.281       .  A
O189       Ni192   1.921       .  S
O189        C194   1.281       .  A
O190       Ni192   1.917       .  S
O190        C193   1.281       .  A
Ni191      Ni192   2.392       .  S
C193        C650   1.463       .  S
C194        C617   1.467       .  S
C195        C542   1.468       .  S
C196        C560   1.470       .  S
O197       Ni205   1.911       .  S
O197        C207   1.279       .  A
O198       Ni205   1.916       .  S
O198        C208   1.280       .  A
O199       Ni205   1.917       .  S
O199        C209   1.281       .  A
O200       Ni205   1.918       .  S
O200        C210   1.282       .  A
O201       Ni206   1.917       .  S
O201        C210   1.280       .  A
O202       Ni206   1.917       .  S
O202        C209   1.281       .  A
O203       Ni206   1.923       .  S
O203        C208   1.282       .  A
O204       Ni206   1.920       .  S
O204        C207   1.281       .  A
Ni205      Ni206   2.391       .  S
C207        C689   1.466       .  S
C208        C596   1.472       .  S
C209       C1067   1.468       .  S
C210        C524   1.469       .  S
O211       Ni219   1.920       .  S
O211        C221   1.281       .  A
O212       Ni219   1.916       .  S
O212        C222   1.281       .  A
O213       Ni219   1.917       .  S
O213        C223   1.281       .  A
O214       Ni219   1.917       .  S
O214        C224   1.280       .  A
O215       Ni220   1.915       .  S
O215        C224   1.280       .  A
O216       Ni220   1.918       .  S
O216        C223   1.281       .  A
O217       Ni220   1.915       .  S
O217        C222   1.280       .  A
O218       Ni220   1.914       .  S
O218        C221   1.281       .  A
Ni219      Ni220   2.392       .  S
C221        C743   1.468       .  S
C222        C509   1.467       .  S
C223        C527   1.470       .  S
C224        C491   1.466       .  S
O225       Ni233   1.915       .  S
O225        C235   1.280       .  A
O226       Ni233   1.919       .  S
O226        C236   1.281       .  A
O227       Ni233   1.919       .  S
O227        C237   1.281       .  A
O228       Ni233   1.921       .  S
O228        C238   1.282       .  A
O229       Ni234   1.913       .  S
O229        C238   1.280       .  A
O230       Ni234   1.915       .  S
O230        C237   1.280       .  A
O231       Ni234   1.913       .  S
O231        C236   1.280       .  A
O232       Ni234   1.912       .  S
O232        C235   1.280       .  A
Ni233      Ni234   2.392       .  S
C235        C923   1.462       .  S
C236        C563   1.467       .  S
C237        C797   1.467       .  S
C238        C470   1.469       .  S
O239       Ni247   1.909       .  S
O239        C249   1.279       .  A
O240       Ni247   1.911       .  S
O240        C250   1.279       .  A
O241       Ni247   1.918       .  S
O241        C251   1.281       .  A
O242       Ni247   1.919       .  S
O242        C252   1.281       .  A
O243       Ni248   1.915       .  S
O243        C252   1.280       .  A
O244       Ni248   1.918       .  S
O244        C251   1.281       .  A
O245       Ni248   1.916       .  S
O245        C250   1.281       .  A
O246       Ni248   1.913       .  S
O246        C249   1.280       .  A
Ni247      Ni248   2.393       .  S
C249       C1136   1.459       .  S
C250        C506   1.465       .  S
C251        C473   1.470       .  S
C252        C452   1.467       .  S
O253       Ni261   1.920       .  S
O253        C263   1.281       .  A
O254       Ni261   1.922       .  S
O254        C264   1.282       .  A
O255       Ni261   1.916       .  S
O255        C265   1.281       .  A
O256       Ni261   1.920       .  S
O256        C266   1.282       .  A
O257       Ni262   1.911       .  S
O257        C266   1.279       .  A
O258       Ni262   1.909       .  S
O258        C265   1.279       .  A
O259       Ni262   1.915       .  S
O259        C264   1.281       .  A
O260       Ni262   1.916       .  S
O260        C263   1.280       .  A
Ni261      Ni262   2.392       .  S
C263       C1085   1.469       .  S
C264        C416   1.471       .  S
C265        C704   1.462       .  S
C266        C437   1.468       .  S
O267       Ni275   1.918       .  S
O267        C277   1.281       .  A
O268       Ni275   1.916       .  S
O268        C278   1.281       .  A
O269       Ni275   1.920       .  S
O269        C279   1.281       .  A
O270       Ni275   1.921       .  S
O270        C280   1.282       .  A
O271       Ni276   1.913       .  S
O271        C280   1.280       .  A
O272       Ni276   1.911       .  S
O272        C279   1.280       .  A
O273       Ni276   1.920       .  S
O273        C278   1.281       .  A
O274       Ni276   1.918       .  S
O274        C277   1.281       .  A
Ni275      Ni276   2.391       .  S
C277       C1031   1.469       .  S
C278        C398   1.470       .  S
C279        C488   1.467       .  S
C280        C434   1.468       .  S
O281       Ni289   1.911       .  S
O281        C291   1.279       .  A
O282       Ni289   1.914       .  S
O282        C292   1.280       .  A
O283       Ni289   1.923       .  S
O283        C293   1.282       .  A
O284       Ni289   1.921       .  S
O284        C294   1.281       .  A
O285       Ni290   1.910       .  S
O285        C294   1.279       .  A
O286       Ni290   1.913       .  S
O286        C293   1.280       .  A
O287       Ni290   1.915       .  S
O287        C292   1.280       .  A
O288       Ni290   1.914       .  S
O288        C291   1.280       .  A
Ni289      Ni290   2.392       .  S
C291        C635   1.463       .  S
C292        C383   1.466       .  S
C293        C419   1.471       .  S
C294        C581   1.466       .  S
O295       Ni303   1.916       .  S
O295        C305   1.280       .  A
O296       Ni303   1.917       .  S
O296        C306   1.281       .  A
O297       Ni303   1.916       .  S
O297        C307   1.281       .  A
O298       Ni303   1.918       .  S
O298        C308   1.281       .  A
O299       Ni304   1.917       .  S
O299        C308   1.280       .  A
O300       Ni304   1.916       .  S
O300        C307   1.280       .  A
O301       Ni304   1.918       .  S
O301        C306   1.281       .  A
O302       Ni304   1.918       .  S
O302        C305   1.281       .  A
Ni303      Ni304   2.391       .  S
C305        C833   1.469       .  S
C306        C401   1.470       .  S
C307        C455   1.468       .  S
C308        C365   1.469       .  S
O309       Ni317   1.919       .  S
O309        C319   1.281       .  A
O310       Ni317   1.919       .  S
O310        C320   1.281       .  A
O311       Ni317   1.914       .  S
O311        C321   1.280       .  A
O312       Ni317   1.916       .  S
O312        C322   1.280       .  A
O313       Ni318   1.920       .  S
O313        C322   1.282       .  A
O314       Ni318   1.921       .  S
O314        C321   1.281       .  A
O315       Ni318   1.913       .  S
O315        C320   1.280       .  A
O316       Ni318   1.912       .  S
O316        C319   1.280       .  A
Ni317      Ni318   2.392       .  S
C319        C956   1.466       .  S
C320        C380   1.467       .  S
C321        C545   1.467       .  S
C322        C344   1.470       .  S
O323       Ni331   1.914       .  S
O323        C333   1.280       .  A
O324       Ni331   1.916       .  S
O324        C334   1.280       .  A
O325       Ni331   1.916       .  S
O325        C335   1.281       .  A
O326       Ni331   1.918       .  S
O326        C336   1.281       .  A
O327       Ni332   1.916       .  S
O327        C336   1.280       .  A
O328       Ni332   1.916       .  S
O328        C335   1.280       .  A
O329       Ni332   1.920       .  S
O329        C334   1.282       .  A
O330       Ni332   1.922       .  S
O330        C333   1.282       .  A
Ni331      Ni332   2.391       .  S
C333        C779   1.470       .  S
C334        C347   1.471       .  S
C335        C941   1.466       .  S
C336        C362   1.469       .  S
C337        C342   1.385       .  A
C337        C338   1.402       .  A
C337        N343   1.342       .  A
C338        C339   1.401       .  A
C338        H349   1.082       .  S
C339        C348   1.377       .  A
C339        C340   1.384       .  A
C340        C341   1.406       .  A
C340        N346   1.345       .  A
C341        C342   1.405       .  A
C341        H350   1.082       .  S
C342        C345   1.380       .  A
N343        C344   1.354       .  A
N343        H353   1.044       .  S
C344        C345   1.397       .  A
C345        H351   1.082       .  S
N346        C347   1.357       .  A
N346        H354   1.044       .  S
C347        C348   1.394       .  A
C348        H352   1.082       .  S
C355        C360   1.385       .  A
C355        C356   1.402       .  A
C355        N361   1.342       .  A
C356        C357   1.401       .  A
C356        H367   1.082       .  S
C357        C366   1.377       .  A
C357        C358   1.385       .  A
C358        C359   1.404       .  A
C358        N364   1.344       .  A
C359        C360   1.403       .  A
C359        H368   1.082       .  S
C360        C363   1.379       .  A
N361        C362   1.355       .  A
N361        H371   1.045       .  S
C362        C363   1.395       .  A
C363        H369   1.082       .  S
N364        C365   1.356       .  A
N364        H372   1.045       .  S
C365        C366   1.394       .  A
C366        H370   1.082       .  S
C373        C378   1.385       .  A
C373        C374   1.403       .  A
C373        N379   1.343       .  A
C374        C375   1.402   1_655  A
C374        H385   1.082       .  S
C375        C384   1.377       .  A
C375        C376   1.385       .  A
C376        C377   1.401       .  A
C376        N382   1.342       .  A
C377        C378   1.401   1_455  A
C377        H386   1.082       .  S
C378        C381   1.375       .  A
N379        C380   1.355       .  A
N379        H389   1.045       .  S
C380        C381   1.394       .  A
C381        H387   1.082       .  S
N382        C383   1.355       .  A
N382        H390   1.045       .  S
C383        C384   1.394       .  A
C384        H388   1.082       .  S
C391        C396   1.385       .  A
C391        C392   1.404       .  A
C391        N397   1.344       .  A
C392        C393   1.403   1_455  A
C392        H403   1.082       .  S
C393        C402   1.379       .  A
C393        C394   1.385       .  A
C394        C395   1.403       .  A
C394        N400   1.343       .  A
C395        C396   1.402   1_655  A
C395        H404   1.082       .  S
C396        C399   1.377       .  A
N397        C398   1.356       .  A
N397        H407   1.045       .  S
C398        C399   1.395       .  A
C399        H405   1.082       .  S
N400        C401   1.355       .  A
N400        H408   1.045       .  S
C401        C402   1.396       .  A
C402        H406   1.082       .  S
C409        C414   1.385       .  A
C409        C410   1.404       .  A
C409        N415   1.345       .  A
C410        C411   1.403       .  A
C410        H421   1.082       .  S
C411        C420   1.377       .  A
C411        C412   1.385       .  A
C412        C413   1.403       .  A
C412        N418   1.344       .  A
C413        C414   1.403       .  A
C413        H422   1.082       .  S
C414        C417   1.377       .  A
N415        C416   1.356       .  A
N415        H425   1.045       .  S
C416        C417   1.395       .  A
C417        H423   1.082       .  S
N418        C419   1.355       .  A
N418        H426   1.044       .  S
C419        C420   1.395       .  A
C420        H424   1.082       .  S
C427        C432   1.385       .  A
C427        C428   1.403       .  A
C427        N433   1.342       .  A
C428        C429   1.401       .  A
C428        H439   1.082       .  S
C429        C438   1.378       .  A
C429        C430   1.385       .  A
C430        C431   1.404       .  A
C430        N436   1.342       .  A
C431        C432   1.402       .  A
C431        H440   1.082       .  S
C432        C435   1.379       .  A
N433        C434   1.355       .  A
N433        H443   1.045       .  S
C434        C435   1.395       .  A
C435        H441   1.082       .  S
N436        C437   1.356       .  A
N436        H444   1.045       .  S
C437        C438   1.394       .  A
C438        H442   1.082       .  S
C445        C450   1.385       .  A
C445        C446   1.403       .  A
C445        N451   1.343       .  A
C446        C447   1.402       .  A
C446        H457   1.082       .  S
C447        C456   1.377       .  A
C447        C448   1.385       .  A
C448        C449   1.402       .  A
C448        N454   1.343       .  A
C449        C450   1.402       .  A
C449        H458   1.082       .  S
C450        C453   1.377       .  A
N451        C452   1.355       .  A
N451        H461   1.044       .  S
C452        C453   1.394       .  A
C453        H459   1.082       .  S
N454        C455   1.355       .  A
N454        H462   1.045       .  S
C455        C456   1.394       .  A
C456        H460   1.082       .  S
C463        C468   1.384       .  A
C463        C464   1.404       .  A
C463        N469   1.342       .  A
C464        C465   1.402   1_554  A
C464        H475   1.082       .  S
C465        C474   1.379       .  A
C465        C466   1.385       .  A
C466        C467   1.404       .  A
C466        N472   1.343       .  A
C467        C468   1.402   1_556  A
C467        H476   1.082       .  S
C468        C471   1.379       .  A
N469        C470   1.355       .  A
N469        H479   1.045       .  S
C470        C471   1.395       .  A
C471        H477   1.082       .  S
N472        C473   1.355       .  A
N472        H480   1.045       .  S
C473        C474   1.396       .  A
C474        H478   1.082       .  S
C481        C486   1.385       .  A
C481        C482   1.404       .  A
C481        N487   1.344       .  A
C482        C483   1.403       .  A
C482        H493   1.082       .  S
C483        C492   1.379       .  A
C483        C484   1.385       .  A
C484        C485   1.401       .  A
C484        N490   1.341       .  A
C485        C486   1.400       .  A
C485        H494   1.082       .  S
C486        C489   1.375       .  A
N487        C488   1.355       .  A
N487        H497   1.045       .  S
C488        C489   1.393       .  A
C489        H495   1.082       .  S
N490        C491   1.354       .  A
N490        H498   1.045       .  S
C491        C492   1.395       .  A
C492        H496   1.082       .  S
C499        C504   1.385       .  A
C499        C500   1.403       .  A
C499        N505   1.342       .  A
C500        C501   1.402   1_655  A
C500        H511   1.082       .  S
C501        C510   1.378       .  A
C501        C502   1.385       .  A
C502        C503   1.401       .  A
C502        N508   1.341       .  A
C503        C504   1.400   1_455  A
C503        H512   1.082       .  S
C504        C507   1.376       .  A
N505        C506   1.355       .  A
N505        H515   1.044       .  S
C506        C507   1.393       .  A
C507        H513   1.082       .  S
N508        C509   1.354       .  A
N508        H516   1.044       .  S
C509        C510   1.395       .  A
C510        H514   1.082       .  S
C517        C522   1.384       .  A
C517        C518   1.406       .  A
C517        N523   1.344       .  A
C518        C519   1.405       .  A
C518        H529   1.082       .  S
C519        C528   1.380   1_565  A
C519        C520   1.385   1_565  A
C520        C521   1.401   1_545  A
C520        N526   1.341       .  A
C521        C522   1.400       .  A
C521        H530   1.082       .  S
C522        C525   1.376       .  A
N523        C524   1.357       .  A
N523        H533   1.045       .  S
C524        C525   1.393       .  A
C525        H531   1.082       .  S
N526        C527   1.354       .  A
N526        H534   1.045       .  S
C527        C528   1.397       .  A
C528        H532   1.082       .  S
C535        C540   1.385       .  A
C535        C536   1.402       .  A
C535        N541   1.343       .  A
C536        C537   1.402       .  A
C536        H547   1.082       .  S
C537        C546   1.376       .  A
C537        C538   1.385       .  A
C538        C539   1.403       .  A
C538        N544   1.344       .  A
C539        C540   1.403       .  A
C539        H548   1.082       .  S
C540        C543   1.377       .  A
N541        C542   1.355       .  A
N541        H551   1.045       .  S
C542        C543   1.395       .  A
C543        H549   1.082       .  S
N544        C545   1.355       .  A
N544        H552   1.045       .  S
C545        C546   1.394       .  A
C546        H550   1.082       .  S
C553        C558   1.385       .  A
C553        C554   1.404       .  A
C553        N559   1.343       .  A
C554        C555   1.402       .  A
C554        H565   1.082       .  S
C555        C564   1.379   1_565  A
C555        C556   1.385   1_565  A
C556        C557   1.403   1_545  A
C556        N562   1.342       .  A
C557        C558   1.402       .  A
C557        H566   1.082   1_565  S
C558        C561   1.378       .  A
N559        C560   1.356       .  A
N559        H569   1.045       .  S
C560        C561   1.395       .  A
C561        H567   1.082       .  S
N562        C563   1.355       .  A
N562        H570   1.045       .  S
C563        C564   1.394       .  A
C564        H568   1.082       .  S
C571        C576   1.385       .  A
C571        C572   1.401       .  A
C571        N577   1.343       .  A
C572        C573   1.401       .  A
C572        H583   1.082       .  S
C573        C582   1.374       .  A
C573        C574   1.385       .  A
C574        C575   1.402       .  A
C574        N580   1.344       .  A
C575        C576   1.402       .  A
C575        H584   1.082       .  S
C576        C579   1.376       .  A
N577        C578   1.354       .  A
N577        H587   1.045       .  S
C578        C579   1.394       .  A
C579        H585   1.082       .  S
N580        C581   1.355       .  A
N580        H588   1.045       .  S
C581        C582   1.394       .  A
C582        H586   1.082       .  S
C589        C594   1.385       .  A
C589        C590   1.404   1_556  A
C589        N595   1.344       .  A
C590        C591   1.403       .  A
C590        H601   1.082       .  S
C591        C600   1.378       .  A
C591        C592   1.385       .  A
C592        C593   1.403   1_554  A
C592        N598   1.344       .  A
C593        C594   1.403       .  A
C593        H602   1.082       .  S
C594        C597   1.378       .  A
N595        C596   1.356       .  A
N595        H605   1.044       .  S
C596        C597   1.394       .  A
C597        H603   1.082       .  S
N598        C599   1.355       .  A
N598        H606   1.044       .  S
C599        C600   1.395       .  A
C600        H604   1.082       .  S
C607        C612   1.385       .  A
C607        C608   1.404       .  A
C607        N613   1.343       .  A
C608        C609   1.403   1_455  A
C608        H619   1.082       .  S
C609        C618   1.380       .  A
C609        C610   1.385       .  A
C610        C611   1.402       .  A
C610        N616   1.341       .  A
C611        C612   1.400   1_655  A
C611        H620   1.082       .  S
C612        C615   1.377       .  A
N613        C614   1.356       .  A
N613        H623   1.045       .  S
C614        C615   1.394       .  A
C615        H621   1.082       .  S
N616        C617   1.354       .  A
N616        H624   1.045       .  S
C617        C618   1.395       .  A
C618        H622   1.082       .  S
C625        C630   1.385       .  A
C625        C626   1.402       .  A
C625        N631   1.341       .  A
C626        C627   1.400       .  A
C626        H637   1.082       .  S
C627        C636   1.376       .  A
C627        C628   1.385       .  A
C628        C629   1.402       .  A
C628        N634   1.341       .  A
C629        C630   1.400       .  A
C629        H638   1.082       .  S
C630        C633   1.376       .  A
N631        C632   1.354       .  A
N631        H641   1.045       .  S
C632        C633   1.393       .  A
C633        H639   1.082       .  S
N634        C635   1.354       .  A
N634        H642   1.045       .  S
C635        C636   1.393       .  A
C636        H640   1.082       .  S
C643        C648   1.385       .  A
C643        C644   1.401       .  A
C643        N649   1.341       .  A
C644        C645   1.400       .  A
C644        H655   1.082       .  S
C645        C654   1.376       .  A
C645        C646   1.385       .  A
C646        C647   1.403       .  A
C646        N652   1.342       .  A
C647        C648   1.401       .  A
C647        H656   1.082       .  S
C648        C651   1.377       .  A
N649        C650   1.354       .  A
N649        H659   1.044       .  S
C650        C651   1.394       .  A
C651        H657   1.082       .  S
N652        C653   1.355       .  A
N652        H660   1.044       .  S
C653        C654   1.393       .  A
C654        H658   1.082       .  S
C661        C666   1.384       .  A
C661        C662   1.403       .  A
C661        N667   1.342       .  A
C662        C663   1.401       .  A
C662        H673   1.082       .  S
C663        C672   1.379       .  A
C663        C664   1.384       .  A
C664        C665   1.406       .  A
C664        N670   1.344       .  A
C665        C666   1.404       .  A
C665        H674   1.082       .  S
C666        C669   1.382       .  A
N667        C668   1.355       .  A
N667        H677   1.045       .  S
C668        C669   1.396       .  A
C669        H675   1.082       .  S
N670        C671   1.357       .  A
N670        H678   1.045       .  S
C671        C672   1.395       .  A
C672        H676   1.082       .  S
C679        C684   1.385       .  A
C679        C680   1.401       .  A
C679        N685   1.342       .  A
C680        C681   1.401       .  A
C680        H691   1.082       .  S
C681        C690   1.375       .  A
C681        C682   1.385       .  A
C682        C683   1.402       .  A
C682        N688   1.343       .  A
C683        C684   1.402       .  A
C683        H692   1.082       .  S
C684        C687   1.376       .  A
N685        C686   1.354       .  A
N685        H695   1.045       .  S
C686        C687   1.394       .  A
C687        H693   1.082       .  S
N688        C689   1.355       .  A
N688        H696   1.045       .  S
C689        C690   1.394       .  A
C690        H694   1.082       .  S
C697        C702   1.385       .  A
C697        C698   1.400       .  A
C697        N703   1.341       .  A
C698        C699   1.399       .  A
C698        H709   1.082       .  S
C699        C708   1.374       .  A
C699        C700   1.385       .  A
C700        C701   1.402       .  A
C700        N706   1.343       .  A
C701        C702   1.402       .  A
C701        H710   1.082       .  S
C702        C705   1.376       .  A
N703        C704   1.353       .  A
N703        H713   1.045       .  S
C704        C705   1.394       .  A
C705        H711   1.082       .  S
N706        C707   1.355       .  A
N706        H714   1.045       .  S
C707        C708   1.393       .  A
C708        H712   1.082       .  S
C715        C720   1.385       .  A
C715        C716   1.403       .  A
C715        N721   1.342       .  A
C716        C717   1.402       .  A
C716        H727   1.082       .  S
C717        C726   1.377       .  A
C717        C718   1.385       .  A
C718        C719   1.403       .  A
C718        N724   1.343       .  A
C719        C720   1.402       .  A
C719        H728   1.082       .  S
C720        C723   1.378       .  A
N721        C722   1.355       .  A
N721        H731   1.045       .  S
C722        C723   1.394       .  A
C723        H729   1.082       .  S
N724        C725   1.355       .  A
N724        H732   1.044       .  S
C725        C726   1.395       .  A
C726        H730   1.082       .  S
C733        C738   1.385       .  A
C733        C734   1.401       .  A
C733        N739   1.341       .  A
C734        C735   1.400       .  A
C734        H745   1.082       .  S
C735        C744   1.375       .  A
C735        C736   1.385       .  A
C736        C737   1.405       .  A
C736        N742   1.345       .  A
C737        C738   1.405       .  A
C737        H746   1.082       .  S
C738        C741   1.380       .  A
N739        C740   1.354       .  A
N739        H749   1.044       .  S
C740        C741   1.396       .  A
C741        H747   1.082       .  S
N742        C743   1.356       .  A
N742        H750   1.044       .  S
C743        C744   1.393       .  A
C744        H748   1.082       .  S
C751        C756   1.384   1_545  A
C751        C752   1.404   1_545  A
C751        N757   1.343       .  A
C752        C753   1.403       .  A
C752        H763   1.082       .  S
C753        C762   1.380       .  A
C753        C754   1.385       .  A
C754        C755   1.403       .  A
C754        N760   1.342       .  A
C755        C756   1.402       .  A
C755        H764   1.082       .  S
C756        C759   1.378   1_565  A
N757        C758   1.356       .  A
N757        H767   1.045       .  S
C758        C759   1.395       .  A
C759        H765   1.082       .  S
N760        C761   1.355       .  A
N760        H768   1.045       .  S
C761        C762   1.395       .  A
C762        H766   1.082       .  S
C769        C774   1.385       .  A
C769        C770   1.402       .  A
C769        N775   1.343       .  A
C770        C771   1.401       .  A
C770        H781   1.082       .  S
C771        C780   1.376       .  A
C771        C772   1.385       .  A
C772        C773   1.404       .  A
C772        N778   1.344       .  A
C773        C774   1.403       .  A
C773        H782   1.082       .  S
C774        C777   1.378       .  A
N775        C776   1.354       .  A
N775        H785   1.045       .  S
C776        C777   1.395       .  A
C777        H783   1.082       .  S
N778        C779   1.356       .  A
N778        H786   1.044       .  S
C779        C780   1.394       .  A
C780        H784   1.082       .  S
C787        C792   1.385       .  A
C787        C788   1.404       .  A
C787        N793   1.344       .  A
C788        C789   1.403       .  A
C788        H799   1.082       .  S
C789        C798   1.378       .  A
C789        C790   1.385       .  A
C790        C791   1.401       .  A
C790        N796   1.342       .  A
C791        C792   1.401       .  A
C791        H800   1.082       .  S
C792        C795   1.376       .  A
N793        C794   1.355       .  A
N793        H803   1.045       .  S
C794        C795   1.393       .  A
C795        H801   1.082       .  S
N796        C797   1.354       .  A
N796        H804   1.045       .  S
C797        C798   1.395       .  A
C798        H802   1.082       .  S
C805        C810   1.385   1_565  A
C805        C806   1.402       .  A
C805        N811   1.342   1_565  A
C806        C807   1.401       .  A
C806        H817   1.082       .  S
C807        C816   1.377       .  A
C807        C808   1.385       .  A
C808        C809   1.404       .  A
C808        N814   1.343       .  A
C809        C810   1.403   1_565  A
C809        H818   1.082       .  S
C810        C813   1.379       .  A
N811        C812   1.354       .  A
N811        H821   1.044       .  S
C812        C813   1.395       .  A
C813        H819   1.082       .  S
N814        C815   1.356       .  A
N814        H822   1.044       .  S
C815        C816   1.394       .  A
C816        H820   1.082       .  S
C823        C828   1.385       .  A
C823        C824   1.403       .  A
C823        N829   1.343       .  A
C824        C825   1.402       .  A
C824        H835   1.082       .  S
C825        C834   1.378       .  A
C825        C826   1.385       .  A
C826        C827   1.403       .  A
C826        N832   1.342       .  A
C827        C828   1.402       .  A
C827        H836   1.082       .  S
C828        C831   1.378       .  A
N829        C830   1.355       .  A
N829        H839   1.045       .  S
C830        C831   1.394       .  A
C831        H837   1.082       .  S
N832        C833   1.355       .  A
N832        H840   1.045       .  S
C833        C834   1.395       .  A
C834        H838   1.082       .  S
C841        C846   1.384       .  A
C841        C842   1.404       .  A
C841        N847   1.344       .  A
C842        C843   1.403       .  A
C842        H853   1.082       .  S
C843        C852   1.379       .  A
C843        C844   1.385       .  A
C844        C845   1.404       .  A
C844        N850   1.344       .  A
C845        C846   1.403       .  A
C845        H854   1.082       .  S
C846        C849   1.378       .  A
N847        C848   1.356       .  A
N847        H857   1.044       .  S
C848        C849   1.396       .  A
C849        H855   1.082       .  S
N850        C851   1.356       .  A
N850        H858   1.044       .  S
C851        C852   1.395       .  A
C852        H856   1.082       .  S
C859        C864   1.385       .  A
C859        C860   1.404       .  A
C859        N865   1.345       .  A
C860        C861   1.404       .  A
C860        H871   1.082       .  S
C861        C870   1.378       .  A
C861        C862   1.385       .  A
C862        C863   1.402       .  A
C862        N868   1.344       .  A
C863        C864   1.402       .  A
C863        H872   1.082       .  S
C864        C867   1.376       .  A
N865        C866   1.356       .  A
N865        H875   1.044       .  S
C866        C867   1.394       .  A
C867        H873   1.082       .  S
N868        C869   1.355       .  A
N868        H876   1.044       .  S
C869        C870   1.396       .  A
C870        H874   1.082       .  S
C877        C882   1.385       .  A
C877        C878   1.402       .  A
C877        N883   1.343       .  A
C878        C879   1.401       .  A
C878        H889   1.082       .  S
C879        C888   1.377       .  A
C879        C880   1.385       .  A
C880        C881   1.403       .  A
C880        N886   1.343       .  A
C881        C882   1.402       .  A
C881        H890   1.082       .  S
C882        C885   1.377       .  A
N883        C884   1.355       .  A
N883        H893   1.045       .  S
C884        C885   1.395       .  A
C885        H891   1.082       .  S
N886        C887   1.355       .  A
N886        H894   1.045       .  S
C887        C888   1.393       .  A
C888        H892   1.082       .  S
C895        C900   1.385       .  A
C895        C896   1.403       .  A
C895        N901   1.344       .  A
C896        C897   1.402       .  A
C896        H907   1.082       .  S
C897        C906   1.378       .  A
C897        C898   1.385       .  A
C898        C899   1.403       .  A
C898        N904   1.344       .  A
C899        C900   1.403       .  A
C899        H908   1.082       .  S
C900        C903   1.378       .  A
N901        C902   1.355       .  A
N901        H911   1.044       .  S
C902        C903   1.395       .  A
C903        H909   1.082       .  S
N904        C905   1.355       .  A
N904        H912   1.044       .  S
C905        C906   1.394       .  A
C906        H910   1.082       .  S
C913        C918   1.385       .  A
C913        C914   1.402       .  A
C913        N919   1.343       .  A
C914        C915   1.402       .  A
C914        H925   1.082       .  S
C915        C924   1.376       .  A
C915        C916   1.386       .  A
C916        C917   1.400       .  A
C916        N922   1.341       .  A
C917        C918   1.400       .  A
C917        H926   1.082       .  S
C918        C921   1.374       .  A
N919        C920   1.355       .  A
N919        H929   1.045       .  S
C920        C921   1.393       .  A
C921        H927   1.082       .  S
N922        C923   1.353       .  A
N922        H930   1.045       .  S
C923        C924   1.394       .  A
C924        H928   1.082       .  S
C931        C936   1.385       .  A
C931        C932   1.401       .  A
C931        N937   1.341       .  A
C932        C933   1.400       .  A
C932        H943   1.082       .  S
C933        C942   1.375       .  A
C933        C934   1.385       .  A
C934        C935   1.404       .  A
C934        N940   1.343       .  A
C935        C936   1.403       .  A
C935        H944   1.082       .  S
C936        C939   1.378       .  A
N937        C938   1.354       .  A
N937        H947   1.044       .  S
C938        C939   1.395       .  A
C939        H945   1.082       .  S
N940        C941   1.356       .  A
N940        H948   1.045       .  S
C941        C942   1.393       .  A
C942        H946   1.082       .  S
C949        C954   1.385       .  A
C949        C950   1.402       .  A
C949        N955   1.343       .  A
C950        C951   1.402       .  A
C950        H961   1.082       .  S
C951        C960   1.377       .  A
C951        C952   1.385       .  A
C952        C953   1.403       .  A
C952        N958   1.344       .  A
C953        C954   1.403       .  A
C953        H962   1.082       .  S
C954        C957   1.377       .  A
N955        C956   1.354       .  A
N955        H965   1.044       .  S
C956        C957   1.394       .  A
C957        H963   1.082       .  S
N958        C959   1.355       .  A
N958        H966   1.044       .  S
C959        C960   1.395       .  A
C960        H964   1.082       .  S
C967        C972   1.385       .  A
C967        C968   1.404       .  A
C967        N973   1.343       .  A
C968        C969   1.403       .  A
C968        H979   1.082       .  S
C969        C978   1.378       .  A
C969        C970   1.385       .  A
C970        C971   1.402       .  A
C970        N976   1.342       .  A
C971        C972   1.401       .  A
C971        H980   1.082       .  S
C972        C975   1.376       .  A
N973        C974   1.355       .  A
N973        H983   1.045       .  S
C974        C975   1.393       .  A
C975        H981   1.082       .  S
N976        C977   1.354       .  A
N976        H984   1.045       .  S
C977        C978   1.395       .  A
C978        H982   1.082       .  S
C985        C990   1.384       .  A
C985        C986   1.404       .  A
C985        N991   1.344       .  A
C986        C987   1.403       .  A
C986        H997   1.082       .  S
C987        C996   1.378       .  A
C987        C988   1.384       .  A
C988        C989   1.404       .  A
C988        N994   1.345       .  A
C989        C990   1.404       .  A
C989        H998   1.082       .  S
C990        C993   1.379       .  A
N991        C992   1.356       .  A
N991       H1001   1.044       .  S
C992        C993   1.396       .  A
C993        H999   1.082       .  S
N994        C995   1.356       .  A
N994       H1002   1.045       .  S
C995        C996   1.395       .  A
C996       H1000   1.082       .  S
C1003      C1008   1.385       .  A
C1003      C1004   1.403       .  A
C1003      N1009   1.343       .  A
C1004      C1005   1.401       .  A
C1004      H1015   1.082       .  S
C1005      C1014   1.377       .  A
C1005      C1006   1.385       .  A
C1006      C1007   1.403       .  A
C1006      N1012   1.343       .  A
C1007      C1008   1.402       .  A
C1007      H1016   1.082       .  S
C1008      C1011   1.378       .  A
N1009      C1010   1.355       .  A
N1009      H1019   1.045       .  S
C1010      C1011   1.395       .  A
C1011      H1017   1.082       .  S
N1012      C1013   1.355       .  A
N1012      H1020   1.045       .  S
C1013      C1014   1.394       .  A
C1014      H1018   1.082       .  S
C1021      C1026   1.385       .  A
C1021      C1022   1.405       .  A
C1021      N1027   1.344       .  A
C1022      C1023   1.404       .  A
C1022      H1033   1.082       .  S
C1023      C1032   1.380       .  A
C1023      C1024   1.385       .  A
C1024      C1025   1.402       .  A
C1024      N1030   1.342       .  A
C1025      C1026   1.401       .  A
C1025      H1034   1.082       .  S
C1026      C1029   1.377       .  A
N1027      C1028   1.356       .  A
N1027      H1037   1.045       .  S
C1028      C1029   1.393       .  A
C1029      H1035   1.082       .  S
N1030      C1031   1.354       .  A
N1030      H1038   1.044       .  S
C1031      C1032   1.396       .  A
C1032      H1036   1.082       .  S
C1039      C1044   1.385       .  A
C1039      C1040   1.402       .  A
C1039      N1045   1.343       .  A
C1040      C1041   1.401       .  A
C1040      H1051   1.082       .  S
C1041      C1050   1.376       .  A
C1041      C1042   1.385       .  A
C1042      C1043   1.403       .  A
C1042      N1048   1.343       .  A
C1043      C1044   1.402       .  A
C1043      H1052   1.082       .  S
C1044      C1047   1.377       .  A
N1045      C1046   1.354       .  A
N1045      H1055   1.045       .  S
C1046      C1047   1.395       .  A
C1047      H1053   1.082       .  S
N1048      C1049   1.355       .  A
N1048      H1056   1.045       .  S
C1049      C1050   1.394       .  A
C1050      H1054   1.082       .  S
C1057      C1062   1.385       .  A
C1057      C1058   1.403       .  A
C1057      N1063   1.342       .  A
C1058      C1059   1.402       .  A
C1058      H1069   1.082       .  S
C1059      C1068   1.378       .  A
C1059      C1060   1.385       .  A
C1060      C1061   1.403       .  A
C1060      N1066   1.342       .  A
C1061      C1062   1.402       .  A
C1061      H1070   1.082       .  S
C1062      C1065   1.378       .  A
N1063      C1064   1.355       .  A
N1063      H1073   1.045       .  S
C1064      C1065   1.394       .  A
C1065      H1071   1.082       .  S
N1066      C1067   1.355       .  A
N1066      H1074   1.044       .  S
C1067      C1068   1.395       .  A
C1068      H1072   1.082       .  S
C1075      C1080   1.385       .  A
C1075      C1076   1.404       .  A
C1075      N1081   1.343       .  A
C1076      C1077   1.403       .  A
C1076      H1087   1.082       .  S
C1077      C1086   1.380       .  A
C1077      C1078   1.385       .  A
C1078      C1079   1.403       .  A
C1078      N1084   1.342       .  A
C1079      C1080   1.401       .  A
C1079      H1088   1.082       .  S
C1080      C1083   1.378       .  A
N1081      C1082   1.356       .  A
N1081      H1091   1.044       .  S
C1082      C1083   1.394       .  A
C1083      H1089   1.082       .  S
N1084      C1085   1.354       .  A
N1084      H1092   1.044       .  S
C1085      C1086   1.395       .  A
C1086      H1090   1.082       .  S
C1093      C1098   1.384       .  A
C1093      C1094   1.404       .  A
C1093      N1099   1.343       .  A
C1094      C1095   1.403   1_556  A
C1094      H1105   1.082       .  S
C1095      C1104   1.379       .  A
C1095      C1096   1.384       .  A
C1096      C1097   1.404       .  A
C1096      N1102   1.343       .  A
C1097      C1098   1.403   1_554  A
C1097      H1106   1.082       .  S
C1098      C1101   1.379       .  A
N1099      C1100   1.356       .  A
N1099      H1109   1.045       .  S
C1100      C1101   1.395       .  A
C1101      H1107   1.082       .  S
N1102      C1103   1.356       .  A
N1102      H1110   1.045       .  S
C1103      C1104   1.395       .  A
C1104      H1108   1.082       .  S
C1111      C1116   1.385       .  A
C1111      C1112   1.403       .  A
C1111      N1117   1.343       .  A
C1112      C1113   1.402       .  A
C1112      H1123   1.082       .  S
C1113      C1122   1.378       .  A
C1113      C1114   1.385       .  A
C1114      C1115   1.403       .  A
C1114      N1120   1.343       .  A
C1115      C1116   1.402       .  A
C1115      H1124   1.082       .  S
C1116      C1119   1.379       .  A
N1117      C1118   1.355       .  A
N1117      H1127   1.045       .  S
C1118      C1119   1.395       .  A
C1119      H1125   1.082       .  S
N1120      C1121   1.355       .  A
N1120      H1128   1.045       .  S
C1121      C1122   1.395       .  A
C1122      H1126   1.082       .  S
C1129      C1134   1.386       .  A
C1129      C1130   1.400       .  A
C1129      N1135   1.341       .  A
C1130      C1131   1.399       .  A
C1130      H1141   1.082       .  S
C1131      C1140   1.373       .  A
C1131      C1132   1.385       .  A
C1132      C1133   1.401       .  A
C1132      N1138   1.342       .  A
C1133      C1134   1.401       .  A
C1133      H1142   1.082       .  S
C1134      C1137   1.374       .  A
N1135      C1136   1.353       .  A
N1135      H1145   1.045       .  S
C1136      C1137   1.393       .  A
C1137      H1143   1.082       .  S
N1138      C1139   1.354       .  A
N1138      H1146   1.045       .  S
C1139      C1140   1.393       .  A
C1140      H1144   1.082       .  S
C1147      C1152   1.385       .  A
C1147      C1148   1.403       .  A
C1147      N1153   1.344       .  A
C1148      C1149   1.402       .  A
C1148      H1159   1.082       .  S
C1149      C1158   1.377       .  A
C1149      C1150   1.385       .  A
C1150      C1151   1.403       .  A
C1150      N1156   1.344       .  A
C1151      C1152   1.403       .  A
C1151      H1160   1.082       .  S
C1152      C1155   1.378       .  A
N1153      C1154   1.355       .  A
N1153      H1163   1.045       .  S
C1154      C1155   1.395       .  A
C1155      H1161   1.082       .  S
N1156      C1157   1.355       .  A
N1156      H1164   1.045       .  S
C1157      C1158   1.394       .  A
C1158      H1162   1.082       .  S
C1165      C1170   1.385       .  A
C1165      C1166   1.402       .  A
C1165      N1171   1.342       .  A
C1166      C1167   1.401   1_556  A
C1166      H1177   1.082       .  S
C1167      C1176   1.377       .  A
C1167      C1168   1.385       .  A
C1168      C1169   1.404       .  A
C1168      N1174   1.343       .  A
C1169      C1170   1.403   1_554  A
C1169      H1178   1.082       .  S
C1170      C1173   1.379       .  A
N1171      C1172   1.355       .  A
N1171      H1181   1.045       .  S
C1172      C1173   1.395       .  A
C1173      H1179   1.082       .  S
N1174      C1175   1.355       .  A
N1174      H1182   1.045       .  S
C1175      C1176   1.394       .  A
C1176      H1180   1.082       .  S
C1183      C1188   1.385       .  A
C1183      C1184   1.402       .  A
C1183      N1189   1.343       .  A
C1184      C1185   1.402       .  A
C1184      H1195   1.082       .  S
C1185      C1194   1.376       .  A
C1185      C1186   1.385       .  A
C1186      C1187   1.404       .  A
C1186      N1192   1.344       .  A
C1187      C1188   1.403       .  A
C1187      H1196   1.082       .  S
C1188      C1191   1.378       .  A
N1189      C1190   1.355       .  A
N1189      H1199   1.044       .  S
C1190      C1191   1.395       .  A
C1191      H1197   1.082       .  S
N1192      C1193   1.355       .  A
N1192      H1200   1.045       .  S
C1193      C1194   1.394       .  A
C1194      H1198   1.082       .  S
