geometry optimzed in LAMMPS
_audit_creation_date              2020-12-01 
_audit_creation_method            'lammps2cif' 
_symmetry_space_group_name_H-M    'P1' 
_symmetry_Int_Tables_number       1 
_symmetry_cell_setting            triclinic 
loop_ 
_symmetry_equiv_pos_as_xyz 
  x,y,z 
_cell_length_a                    56.98577752 
_cell_length_b                    58.38068279230374 
_cell_length_c                    56.934498170154185 
_cell_angle_alpha                 89.77086540296116 
_cell_angle_beta                  90.11283986980804 
_cell_angle_gamma                 89.9448118464041 
loop_ 
_atom_site_label 
_atom_site_type_symbol 
_atom_site_fract_x 
_atom_site_fract_y 
_atom_site_fract_z 
_atom_site_charge 
N1          N  0.83882887  0.82288461  0.99553542    -0.02600
C2          C  0.83980475  0.81209553  0.01681003     0.00000
C3          C  0.84233960  0.78873567  0.01405001    -0.22900
C4          C  0.84242763  0.78462309  0.99049245    -0.23100
C5          C  0.83991660  0.80559967  0.97951849    -0.00100
H6          H  0.84137896  0.77582757  0.02772245     0.13700
H7          H  0.84191088  0.76792983  0.98230180     0.13800
N8          N  0.79534749  0.20744496  0.00278564    -0.02600
C9          C  0.79382931  0.22477300  0.01869610     0.00000
C10         C  0.79397254  0.24588626  0.00777984    -0.22900
C11         C  0.79484037  0.24176675  0.98425771    -0.23100
C12         C  0.79500014  0.21825804  0.98149198    -0.00100
H13         H  0.79121921  0.26238689  0.01593722     0.13700
H14         H  0.79227369  0.25446558  0.97057434     0.13800
N15         N  0.20001726  0.88623138  0.00219949    -0.02600
C16         C  0.21113849  0.88555854  0.02329894     0.00000
C17         C  0.23513112  0.88404398  0.02038672    -0.22900
C18         C  0.23911904  0.88389851  0.99670326    -0.23100
C19         C  0.21739219  0.88526484  0.98592197    -0.00100
H20         H  0.24815355  0.88145560  0.03401137     0.13700
H21         H  0.25590811  0.88122159  0.98828646     0.13800
N22         N  0.83406299  0.02539377  0.79170542    -0.02600
C23         C  0.83326464  0.04381353  0.77706343     0.00000
C24         C  0.83436950  0.03717107  0.75389031    -0.22900
C25         C  0.83529334  0.01373628  0.75408709    -0.23100
C26         C  0.83458390  0.00682641  0.77735865    -0.00100
H27         H  0.83240179  0.04800327  0.73854216     0.13700
H28         H  0.83351124  0.00284825  0.73883921     0.13800
N29         N  0.98875777  0.22658233  0.83202878    -0.02600
C30         C  0.97178056  0.24273466  0.82859097     0.00000
C31         C  0.98189593  0.26394052  0.82477734    -0.22900
C32         C  0.00565426  0.26072267  0.82496846    -0.23100
C33         C  0.00951900  0.23765229  0.82881656    -0.00100
H34         H  0.97306379  0.27942080  0.81906792     0.13700
H35         H  0.01852437  0.27317064  0.81923854     0.13800
N36         N  0.97619707  0.88584112  0.79197793    -0.02600
C37         C  0.95547924  0.88680086  0.78010085     0.00000
C38         C  0.95909330  0.88540406  0.75616428    -0.22900
C39         C  0.98275394  0.88340011  0.75298205    -0.23100
C40         C  0.99286340  0.88347823  0.77504542    -0.00100
H41         H  0.94584338  0.88397759  0.74260507     0.13700
H42         H  0.99144142  0.87975864  0.73651783     0.13800
N43         N  0.19648270  0.02779880  0.85237569    -0.02600
C44         C  0.21209766  0.04508269  0.84952564     0.00000
C45         C  0.23418828  0.03642905  0.84491608    -0.22900
C46         C  0.23204872  0.01299558  0.84467692    -0.23100
C47         C  0.20877024  0.00812488  0.84924822    -0.00100
H48         H  0.24981519  0.04611336  0.84069295     0.13700
H49         H  0.24557688  0.00090315  0.83979167     0.13800
N50         N  0.97824330  0.81468468  0.14604351    -0.02600
C51         C  0.95728420  0.80349468  0.14420043     0.00000
C52         C  0.96093574  0.78040505  0.14034068    -0.22900
C53         C  0.98459970  0.77679321  0.14099621    -0.23100
C54         C  0.99486606  0.79780571  0.14510586    -0.00100
H55         H  0.94771038  0.76709802  0.14045477     0.13700
H56         H  0.99316673  0.76023798  0.14118280     0.13800
N57         N  0.78032203  0.03651962  0.16566131    -0.02600
C58         C  0.76922973  0.05629546  0.17158993     0.00000
C59         C  0.74759266  0.05205141  0.18147081    -0.22900
C60         C  0.74488341  0.02885278  0.18167702    -0.23100
C61         C  0.76496907  0.01969407  0.17194822    -0.00100
H62         H  0.73553422  0.06451804  0.18865508     0.13700
H63         H  0.73005862  0.01949763  0.18869712     0.13800
N64         N  0.97792704  0.16964640  0.22556768    -0.02600
C65         C  0.95839836  0.16572503  0.23886890     0.00000
C66         C  0.96468912  0.16018474  0.26166040    -0.22900
C67         C  0.98849607  0.16223821  0.26312905    -0.23100
C68         C  0.99620157  0.16882704  0.24113902    -0.00100
H69         H  0.95299432  0.15847711  0.27652890     0.13700
H70         H  0.99856644  0.16210180  0.27926696     0.13800
Zr71       Zr  0.25542144  0.30006481  0.28443837     2.17500
O72         O  0.28449692  0.28372413  0.31113364    -0.50400
O73         O  0.25929452  0.34053105  0.29234268    -0.73600
O74         O  0.29302826  0.31303512  0.27160188    -0.80400
O75         O  0.20501827  0.29802665  0.32790936    -0.82100
O76         O  0.29632959  0.30644131  0.23234377    -0.77800
O77         O  0.24438898  0.30396750  0.32470838    -0.89400
O78         O  0.23470100  0.35869569  0.26706263    -0.75400
O79         O  0.25229638  0.31599696  0.24613444    -0.84900
O80         O  0.21660601  0.31495096  0.28213967    -0.84500
O81         O  0.26478350  0.26933468  0.25826638    -0.71300
O82         O  0.23040836  0.26827847  0.29272944    -0.83400
Zr83       Zr  0.19613108  0.26815630  0.22509069     2.26400
Zr84       Zr  0.26039208  0.28546064  0.21961166     2.06300
Zr85       Zr  0.19125389  0.28313027  0.28954414     2.10000
Zr86       Zr  0.21360122  0.33054544  0.24368166     1.78800
O87         O  0.18216065  0.25449280  0.31934835    -0.92200
O88         O  0.23114003  0.35714781  0.21568963    -0.40100
O89         O  0.18715953  0.29924874  0.25077711    -0.76700
O90         O  0.22104550  0.30015517  0.21637203    -0.95400
O91         O  0.23505671  0.25367971  0.22740972    -0.88700
O92         O  0.19954796  0.25228884  0.26337878    -0.91500
C93         C  0.25006467  0.35870687  0.28363244     1.02200
C94         C  0.22528837  0.30356841  0.33643182     1.15200
C95         C  0.30393055  0.31466307  0.25206724     1.05900
O96         O  0.26824656  0.31057081  0.18631230    -0.93700
O97         O  0.24800050  0.26594450  0.18295478    -0.89400
O98         O  0.20911622  0.25779726  0.18667344    -0.82600
C99         C  0.22849294  0.25732789  0.17542199     1.12600
O100        O  0.26976557  0.22786030  0.29327609    -0.95600
Zr101      Zr  0.23853360  0.23794256  0.26572557     1.88900
O102        O  0.19006802  0.22740946  0.22091804    -0.72300
O103        O  0.29373532  0.26113433  0.21011188    -0.51600
O104        O  0.26732391  0.21201222  0.24869397    -0.96200
O105        O  0.22225588  0.21381129  0.29674976    -0.53500
O106        O  0.21695965  0.20913690  0.24366489    -0.72800
C107        C  0.19988172  0.20920867  0.22887054     0.99500
O108        O  0.16815382  0.28133932  0.19551964    -0.61600
O109        O  0.15968825  0.30879842  0.30121357    -0.56400
O110        O  0.15638945  0.26137427  0.23714993    -0.93100
O111        O  0.15316531  0.26713985  0.27642282    -0.91500
O112        O  0.18236769  0.35358791  0.26069544    -0.91900
O113        O  0.18712297  0.34425735  0.21306608    -0.90700
C114        C  0.14469647  0.26102051  0.25630953     1.18400
H115        H  0.21392296  0.32679849  0.29363178     0.34300
H116        H  0.21819104  0.30548528  0.20051479     0.45200
H117        H  0.18847253  0.24001126  0.26581073     0.38700
H118        H  0.28083352  0.26446384  0.26063939     0.35200
H119        H  0.22729044  0.37256073  0.22178920     0.27000
H120        H  0.28705722  0.24552146  0.20906230     0.32900
H121        H  0.26392074  0.21214850  0.23163584     0.38800
H122        H  0.16782186  0.34479496  0.25771042     0.33300
H123        H  0.15379306  0.30231651  0.31617396     0.32100
H124        H  0.16732991  0.25985269  0.32650439     0.33800
H125        H  0.20513294  0.21350199  0.29384004     0.32800
H126        H  0.17740761  0.33079880  0.20901948     0.36800
H127        H  0.15831522  0.29280539  0.20366235     0.29500
H128        H  0.29215485  0.29707174  0.31858897     0.33800
H129        H  0.26835722  0.21113850  0.29589292     0.36600
H130        H  0.16767110  0.32316511  0.30578209     0.29200
H131        H  0.17751216  0.29048174  0.18425010     0.42100
H132        H  0.26566117  0.32621792  0.19240047     0.32100
H133        H  0.24826697  0.35563064  0.21818328     0.39800
H134        H  0.22403361  0.22291678  0.31128130     0.31600
H135        H  0.29770068  0.26523382  0.19369906     0.31700
H136        H  0.29672583  0.27704742  0.30089898     0.31900
N137        N  0.15708164  0.03031546  0.20437310    -0.02600
C138        C  0.16013029  0.04961515  0.21723312     0.00000
C139        C  0.17299248  0.04507292  0.23729451    -0.22900
C140        C  0.17825583  0.02219995  0.23682856    -0.23100
C141        C  0.16841357  0.01355903  0.21652382    -0.00100
H142        H  0.17919029  0.05737481  0.25005111     0.13700
H143        H  0.18916591  0.01303260  0.24930301     0.13800
Zr144      Zr  0.26089254  0.75200094  0.27276302     2.17500
O145        O  0.29105093  0.72550796  0.25917211    -0.50400
O146        O  0.26082924  0.74171178  0.31401141    -0.73600
O147        O  0.29935330  0.76319692  0.28531614    -0.80400
O148        O  0.21178868  0.70917596  0.26104172    -0.82100
O149        O  0.30332137  0.80150238  0.27995456    -0.77800
O150        O  0.24988183  0.71261201  0.27250146    -0.89400
O151        O  0.23419856  0.76446547  0.33207369    -0.75400
O152        O  0.25540610  0.78737580  0.29242222    -0.84900
O153        O  0.22069322  0.75241795  0.28378736    -0.84500
O154        O  0.27230407  0.78038636  0.24458650    -0.71300
O155        O  0.23945514  0.74700872  0.23697456    -0.83400
Zr156      Zr  0.20357224  0.81215622  0.23878204     2.26400
Zr157      Zr  0.26557344  0.81609419  0.26417615     2.06300
Zr158      Zr  0.19886701  0.74792431  0.24825723     2.10000
Zr159      Zr  0.21497446  0.78814925  0.30257188     1.78800
O160        O  0.19178603  0.72172705  0.21588247    -0.92200
O161        O  0.22884168  0.81731098  0.32972611    -0.40100
O162        O  0.19230914  0.78397902  0.26723610    -0.76700
O163        O  0.22474386  0.81754139  0.27478683    -0.95400
O164        O  0.24387415  0.81199754  0.22836199    -0.88700
O165        O  0.20941418  0.77645850  0.21988075    -0.91500
C166        C  0.24978107  0.74856949  0.33228909     1.02200
C167        C  0.23140701  0.70079577  0.26872811     1.15200
C168        C  0.31130489  0.78168242  0.28629043     1.05900
O169        O  0.27104296  0.84037619  0.29845361    -0.93700
O170        O  0.25336494  0.85462174  0.25134462    -0.89400
O171        O  0.21737630  0.85063212  0.23430087    -0.82600
C172        C  0.23525269  0.86244608  0.24031219     1.12600
O173        O  0.28147557  0.75080036  0.19828515    -0.95600
Zr174      Zr  0.24968445  0.77645459  0.20929910     1.88900
O175        O  0.20219084  0.82050621  0.19716473    -0.72300
O176        O  0.29755600  0.83382178  0.24240132    -0.51600
O177        O  0.28111413  0.79683554  0.18920363    -0.96200
O178        O  0.23637699  0.75020360  0.17891223    -0.53500
O179        O  0.23169147  0.80097184  0.17971423    -0.72800
C180        C  0.21442466  0.81510722  0.17915879     0.99500
O181        O  0.17396359  0.83942723  0.25195875    -0.61600
O182        O  0.16695813  0.73374458  0.27271769    -0.56400
O183        O  0.16479184  0.80085593  0.22684320    -0.93100
O184        O  0.16189355  0.76218409  0.23028537    -0.91500
O185        O  0.18543930  0.76778445  0.32543235    -0.91900
O186        O  0.18141168  0.81132650  0.31429457    -0.90700
C187        C  0.15353351  0.78202207  0.22442099     1.18400
H188        H  0.21705824  0.74012743  0.29459601     0.34300
H189        H  0.22101476  0.83232990  0.28135264     0.45200
H190        H  0.19974251  0.77506489  0.20602489     0.38700
H191        H  0.28873383  0.77875042  0.24080581     0.35200
H192        H  0.22137120  0.81334892  0.34489059     0.27000
H193        H  0.30794299  0.84045615  0.25456035     0.32900
H194        H  0.27907575  0.81305785  0.19379182     0.38800
H195        H  0.18816598  0.77256955  0.34188485     0.33300
H196        H  0.15957687  0.74770191  0.27923043     0.32100
H197        H  0.17533676  0.71668810  0.21796783     0.33800
H198        H  0.22185667  0.75713483  0.17246246     0.32800
H199        H  0.16946795  0.80872804  0.30193780     0.36800
H200        H  0.16345578  0.83042248  0.26228506     0.29500
H201        H  0.29910345  0.71994670  0.27353612     0.33800
H202        H  0.28100265  0.73837918  0.21016097     0.36600
H203        H  0.15522205  0.72764305  0.26153379     0.29200
H204        H  0.18226245  0.84984199  0.26285229     0.42100
H205        H  0.28304999  0.83245279  0.30810654     0.32100
H206        H  0.24565894  0.81371909  0.33214292     0.39800
H207        H  0.23090545  0.73651439  0.18762202     0.31600
H208        H  0.30659787  0.82085087  0.23584799     0.31700
H209        H  0.30283054  0.73505418  0.25093917     0.31900
Zr210      Zr  0.76003348  0.27179599  0.22309552     2.17500
O211        O  0.78814006  0.28741855  0.19509786    -0.50400
O212        O  0.76481393  0.23152595  0.21552972    -0.73600
O213        O  0.79811727  0.25896241  0.23499352    -0.80400
O214        O  0.70862660  0.27354297  0.18074244    -0.82100
O215        O  0.80045125  0.26270524  0.27469080    -0.77800
O216        O  0.74779960  0.26594271  0.18344681    -0.89400
O217        O  0.74123032  0.21276979  0.24118559    -0.75400
O218        O  0.75709113  0.25502416  0.26099380    -0.84900
O219        O  0.72140943  0.25664031  0.22563241    -0.84500
O220        O  0.76972034  0.30194900  0.24980094    -0.71300
O221        O  0.73467047  0.30373687  0.21596591    -0.83400
Zr222      Zr  0.70081773  0.30278410  0.28387752     2.26400
Zr223      Zr  0.76552784  0.28487554  0.28811771     2.06300
Zr224      Zr  0.69565523  0.28834203  0.21924972     2.10000
Zr225      Zr  0.71849311  0.24043280  0.26368809     1.78800
O226        O  0.68304782  0.31429415  0.18815716    -0.92200
O227        O  0.73571588  0.21471021  0.29282059    -0.40100
O228        O  0.69184708  0.27191945  0.25780766    -0.76700
O229        O  0.72602408  0.27045776  0.29139502    -0.95400
O230        O  0.73984986  0.31689853  0.28185556    -0.88700
O231        O  0.70412007  0.31900074  0.24576765    -0.91500
C232        C  0.75647825  0.21317328  0.22457462     1.02200
C233        C  0.72838004  0.26659866  0.17223978     1.15200
C234        C  0.80832640  0.25548386  0.25469209     1.05900
O235        O  0.77638759  0.25881331  0.31983952    -0.93700
O236        O  0.75325877  0.30151124  0.32625743    -0.89400
O237        O  0.71427266  0.30912710  0.32301127    -0.82600
C238        C  0.73350342  0.30877757  0.33460139     1.12600
O239        O  0.76932970  0.34771824  0.21363432    -0.95600
Zr240      Zr  0.74301016  0.33335471  0.24394250     1.88900
O241        O  0.69650310  0.34361372  0.29158917    -0.72300
O242        O  0.79840198  0.31011591  0.29673684    -0.51600
O243        O  0.77530742  0.35434910  0.26180843    -0.96200
O244        O  0.72500348  0.36201486  0.21831507    -0.53500
O245        O  0.72372597  0.36120965  0.26896131    -0.72800
C246        C  0.70726678  0.36160987  0.28430221     0.99500
O247        O  0.67217281  0.28838270  0.31205178    -0.61600
O248        O  0.66628275  0.25953773  0.20969454    -0.56400
O249        O  0.66137297  0.31166821  0.27132297    -0.93100
O250        O  0.65778836  0.30482676  0.23221074    -0.91500
O251        O  0.68836542  0.21771643  0.24424758    -0.91900
O252        O  0.69007378  0.22516762  0.29152392    -0.90700
C253        C  0.64955281  0.31167739  0.25213176     1.18400
H254        H  0.71866472  0.24482525  0.21412063     0.34300
H255        H  0.72342341  0.26471076  0.30710291     0.45200
H256        H  0.69316659  0.33145301  0.24359949     0.38700
H257        H  0.78571435  0.30692660  0.24738578     0.35200
H258        H  0.73341284  0.19914812  0.28635561     0.27000
H259        H  0.79126812  0.32339329  0.30480475     0.32900
H260        H  0.77151469  0.35475676  0.27876705     0.38800
H261        H  0.69612859  0.20308888  0.24017080     0.33300
H262        H  0.65556856  0.25921466  0.22336120     0.32100
H263        H  0.68639926  0.32976560  0.19435469     0.33800
H264        H  0.70929060  0.36506765  0.22500226     0.32800
H265        H  0.67965713  0.23826956  0.29509904     0.36800
H266        H  0.66082740  0.27943669  0.30262326     0.29500
H267        H  0.79896721  0.27462525  0.19152658     0.33800
H268        H  0.76829966  0.33631781  0.20084791     0.36600
H269        H  0.65690146  0.26652688  0.19687889     0.29200
H270        H  0.68073981  0.27665645  0.32130929     0.42100
H271        H  0.79276130  0.26294880  0.32383073     0.32100
H272        H  0.75283641  0.21737362  0.29169540     0.39800
H273        H  0.72176642  0.35380010  0.20348440     0.31600
H274        H  0.80734692  0.30204762  0.30919514     0.31700
H275        H  0.79769955  0.29837214  0.20425759     0.31900
Zr276      Zr  0.69145408  0.75739959  0.26044218     2.17500
O277        O  0.66612241  0.72766707  0.24446740    -0.50400
O278        O  0.68084617  0.75499263  0.30130143    -0.73600
O279        O  0.70446535  0.72132065  0.27586403    -0.80400
O280        O  0.64895244  0.80714229  0.25537115    -0.82100
O281        O  0.74422851  0.71921406  0.27279992    -0.77800
O282        O  0.65105865  0.76872749  0.26205728    -0.89400
O283        O  0.70582443  0.77832545  0.32098422    -0.75400
O284        O  0.72874922  0.76114752  0.27860830    -0.84900
O285        O  0.69300908  0.79556889  0.27474681    -0.84500
O286        O  0.71958996  0.74729429  0.23113441    -0.71300
O287        O  0.68515454  0.78107423  0.22672220    -0.83400
Zr288      Zr  0.75285912  0.81448883  0.22908660     2.26400
Zr289      Zr  0.75733106  0.75269299  0.24934609     2.06300
Zr290      Zr  0.68775728  0.81960559  0.24118884     2.10000
Zr291      Zr  0.73031058  0.79900574  0.29279077     1.78800
O292        O  0.65815431  0.83123507  0.21264860    -0.92200
O293        O  0.75734085  0.78076873  0.32030473    -0.40100
O294        O  0.72541379  0.82389337  0.25938046    -0.76700
O295        O  0.75937213  0.79133493  0.26338257    -0.95400
O296        O  0.75164032  0.77620880  0.21543601    -0.88700
O297        O  0.71539643  0.81046229  0.21098384    -0.91500
C298        C  0.68893252  0.76372120  0.32024871     1.02200
C299        C  0.63987586  0.78775046  0.26142561     1.15200
C300        C  0.72416555  0.71156980  0.27999200     1.05900
O301        O  0.78932986  0.74353858  0.27620294    -0.93700
O302        O  0.79547738  0.76568746  0.23297528    -0.89400
O303        O  0.79346220  0.80417507  0.22665112    -0.82600
C304        C  0.80459796  0.78516071  0.22704843     1.12600
O305        O  0.68570483  0.74345592  0.18493973    -0.95600
Zr306      Zr  0.71415414  0.77185710  0.19785205     1.88900
O307        O  0.76325717  0.81459233  0.18773820    -0.72300
O308        O  0.76709001  0.72004554  0.22477012    -0.51600
O309        O  0.73433216  0.74008057  0.17907328    -0.96200
O310        O  0.68777810  0.78530770  0.16695309    -0.53500
O311        O  0.73949896  0.78944483  0.16903874    -0.72800
C312        C  0.75628037  0.80401701  0.16926587     0.99500
O313        O  0.77796050  0.84486600  0.24429350    -0.61600
O314        O  0.67699426  0.84972790  0.26865620    -0.56400
O315        O  0.74059905  0.85171777  0.21651022    -0.93100
O316        O  0.70188430  0.85636962  0.22523816    -0.91500
O317        O  0.71154854  0.82843824  0.31646042    -0.91900
O318        O  0.75907387  0.82699538  0.30599123    -0.90700
C319        C  0.72169488  0.86346116  0.21707543     1.18400
H320        H  0.68091965  0.79851476  0.28620338     0.34300
H321        H  0.77474272  0.79438534  0.26975383     0.45200
H322        H  0.71358630  0.82058677  0.19764977     0.38700
H323        H  0.71764460  0.73146925  0.22661643     0.35200
H324        H  0.75200035  0.78583038  0.33599036     0.27000
H325        H  0.77732643  0.72642155  0.21233110     0.32900
H326        H  0.73116224  0.74213302  0.16209028     0.38800
H327        H  0.71474303  0.82381911  0.33291536     0.33300
H328        H  0.66441921  0.85841808  0.26054308     0.32100
H329        H  0.66481459  0.82684165  0.19726960     0.33800
H330        H  0.69498712  0.79953290  0.16080567     0.32800
H331        H  0.75772619  0.83979955  0.29461550     0.36800
H332        H  0.76732930  0.85493955  0.25333425     0.29500
H333        H  0.66038709  0.71906631  0.25833457     0.33800
H334        H  0.67440274  0.74224009  0.19806017     0.36600
H335        H  0.66890787  0.84172687  0.28168994     0.29200
H336        H  0.78777515  0.83739557  0.25648582     0.42100
H337        H  0.79210119  0.75781748  0.28510256     0.32100
H338        H  0.75334998  0.76427110  0.31977277     0.39800
H339        H  0.67359327  0.79057452  0.17537274     0.31600
H340        H  0.77773158  0.71061962  0.23461909     0.31700
H341        H  0.67684473  0.71691039  0.23642141     0.31900
N342        N  0.19227736  0.17683185  0.00399217    -0.02600
C343        C  0.20575277  0.17223289  0.02331163     0.00000
C344        C  0.22732880  0.16360798  0.01669965    -0.22900
C345        C  0.22811630  0.16451893  0.99277302    -0.23100
C346        C  0.20693939  0.17356330  0.98537657    -0.00100
H347        H  0.24225111  0.16042437  0.02805328     0.13700
H348        H  0.24370863  0.16204503  0.98225349     0.13800
Zr349      Zr  0.21052191  0.26108630  0.78512792     2.17500
O350        O  0.18067185  0.27627667  0.81146821    -0.50400
O351        O  0.20972973  0.22113350  0.79653300    -0.73600
O352        O  0.17292998  0.24820117  0.77250290    -0.80400
O353        O  0.25782173  0.27043111  0.83044155    -0.82100
O354        O  0.16924497  0.25415664  0.73310331    -0.77800
O355        O  0.21979944  0.25957612  0.82574681    -0.89400
O356        O  0.23625655  0.20280257  0.77362410    -0.75400
O357        O  0.21649753  0.24209114  0.74881063    -0.84900
O358        O  0.25047982  0.24966329  0.78612584    -0.84500
O359        O  0.20000120  0.28848497  0.75556451    -0.71300
O360        O  0.23192862  0.29573350  0.79134919    -0.83400
Zr361      Zr  0.26941758  0.29234867  0.72499628     2.26400
Zr362      Zr  0.20732479  0.26969562  0.71885567     2.06300
Zr363      Zr  0.27227213  0.28416672  0.79151117     2.10000
Zr364      Zr  0.25662831  0.23102527  0.74977392     1.78800
O365        O  0.27762470  0.31809411  0.81569094    -0.92200
O366        O  0.24387466  0.20168612  0.72233628    -0.40100
O367        O  0.27957736  0.26506164  0.75485224    -0.76700
O368        O  0.24771192  0.25780599  0.71892876    -0.95400
O369        O  0.22947731  0.30401084  0.72405397    -0.88700
O370        O  0.26304124  0.31142680  0.76133953    -0.91500
C371        C  0.22048817  0.20308302  0.78968214     1.02200
C372        C  0.23805707  0.26264256  0.83833302     1.15200
C373        C  0.16137571  0.24743438  0.75330603     1.05900
O374        O  0.20263239  0.23761212  0.69206311    -0.93700
O375        O  0.22120867  0.28483615  0.68028427    -0.89400
O376        O  0.25953380  0.29497985  0.68421047    -0.82600
C377        C  0.24092009  0.29238602  0.67198799     1.12600
O378        O  0.19189380  0.33275127  0.78806641    -0.95600
Zr379      Zr  0.22286679  0.32241663  0.76055517     1.88900
O380        O  0.27059926  0.33238780  0.71432742    -0.72300
O381        O  0.17427080  0.29038078  0.70181041    -0.51600
O382        O  0.19051598  0.34097686  0.73980375    -0.96200
O383        O  0.23603930  0.35325775  0.78615065    -0.53500
O384        O  0.24180711  0.34993063  0.73506511    -0.72800
C385        C  0.25859924  0.35002690  0.72009652     0.99500
O386        O  0.30049310  0.27831545  0.69931789    -0.61600
O387        O  0.30437606  0.26447107  0.81139541    -0.56400
O388        O  0.30796260  0.30275502  0.73758898    -0.93100
O389        O  0.31066007  0.29834758  0.77725713    -0.91500
O390        O  0.28699364  0.21051987  0.77159733    -0.91900
O391        O  0.28914813  0.21917933  0.72491377    -0.90700
C392        C  0.31928409  0.30360775  0.75695184     1.18400
H393        H  0.25354329  0.23909212  0.79885815     0.34300
H394        H  0.25164792  0.25123738  0.70393020     0.45200
H395        H  0.27296657  0.32475046  0.76273829     0.38700
H396        H  0.18357967  0.29237226  0.75682422     0.35200
H397        H  0.25040581  0.18723806  0.72877615     0.27000
H398        H  0.18104870  0.30484704  0.69574903     0.32900
H399        H  0.19611120  0.34292406  0.72346520     0.38800
H400        H  0.28084750  0.20880647  0.78776086     0.33300
H401        H  0.30437990  0.27056863  0.82760073     0.32100
H402        H  0.28827689  0.31307797  0.82847462     0.33800
H403        H  0.25144466  0.35811570  0.77986906     0.32800
H404        H  0.28895997  0.23002072  0.71151668     0.36800
H405        H  0.31014567  0.26818928  0.70943915     0.29500
H406        H  0.17101736  0.26293770  0.81617686     0.33800
H407        H  0.18935494  0.34940784  0.78590388     0.36600
H408        H  0.29892864  0.24844851  0.81306239     0.29200
H409        H  0.29282220  0.26757705  0.68830733     0.42100
H410        H  0.19245367  0.22665413  0.70057786     0.32100
H411        H  0.22674441  0.20038185  0.72488681     0.39800
H412        H  0.23982487  0.34558276  0.80122504     0.31600
H413        H  0.17010347  0.28157068  0.68757715     0.31700
H414        H  0.17024981  0.28566294  0.80135453     0.31900
Zr415      Zr  0.19730230  0.79468396  0.78546193     2.17500
O416        O  0.17080294  0.77831830  0.81456715    -0.50400
O417        O  0.19126233  0.83542753  0.79112612    -0.73600
O418        O  0.21207734  0.80528921  0.82325573    -0.80400
O419        O  0.15244970  0.79361380  0.73596642    -0.82100
O420        O  0.25183440  0.80060582  0.82263915    -0.77800
O421        O  0.15703934  0.80042415  0.77501813    -0.89400
O422        O  0.21676171  0.85251036  0.76610773    -0.75400
O423        O  0.23581130  0.80948052  0.78079057    -0.84900
O424        O  0.19865745  0.81013478  0.74680549    -0.84500
O425        O  0.22330356  0.76332357  0.79353067    -0.71300
O426        O  0.18776929  0.76342485  0.76019944    -0.83400
Zr427      Zr  0.25394465  0.76186082  0.72379773     2.26400
Zr428      Zr  0.26213634  0.77831476  0.78749796     2.06300
Zr429      Zr  0.19006942  0.77892852  0.72117814     2.10000
Zr430      Zr  0.23724583  0.82454334  0.74228834     1.78800
O431        O  0.16054440  0.75101461  0.70959406    -0.92200
O432        O  0.26847344  0.84812786  0.75864711    -0.40100
O433        O  0.22891783  0.79372646  0.71597083    -0.76700
O434        O  0.26429034  0.79348199  0.74831156    -0.95400
O435        O  0.25295283  0.74684023  0.76255989    -0.88700
O436        O  0.21537848  0.74701738  0.72831399    -0.91500
C437        C  0.20106904  0.85323019  0.78222470     1.02200
C438        C  0.14472268  0.79998300  0.75620720     1.15200
C439        C  0.23257940  0.80773643  0.83201421     1.05900
O440        O  0.29634683  0.80185969  0.79597032    -0.93700
O441        O  0.29813750  0.75886748  0.77348850    -0.89400
O442        O  0.29148294  0.74823099  0.73569496    -0.82600
C443        C  0.30409194  0.74880752  0.75420164     1.12600
O444        O  0.18533836  0.72144235  0.79663636    -0.95600
Zr445      Zr  0.21446554  0.73237901  0.76740724     1.88900
O446        O  0.25626395  0.72130386  0.71627174    -0.72300
O447        O  0.27060266  0.75355811  0.82100514    -0.51600
O448        O  0.23308179  0.71069622  0.79898802    -0.96200
O449        O  0.18537286  0.70430653  0.75485692    -0.53500
O450        O  0.23601286  0.70362085  0.74535366    -0.72800
C451        C  0.24929243  0.70332431  0.72717139     0.99500
O452        O  0.28437114  0.77542356  0.69710266    -0.61600
O453        O  0.17752511  0.80724429  0.69216010    -0.56400
O454        O  0.24161617  0.75905738  0.68379953    -0.93100
O455        O  0.20239981  0.76602919  0.68198306    -0.91500
O456        O  0.21766744  0.84762800  0.71239152    -0.91900
O457        O  0.26363962  0.84079856  0.71308447    -0.90700
C458        C  0.22217939  0.76042693  0.67264766     1.18400
H459        H  0.18739799  0.82235301  0.74470385     0.34300
H460        H  0.28012033  0.79848042  0.74497174     0.45200
H461        H  0.21213663  0.73499154  0.71716110     0.38700
H462        H  0.22151391  0.75834198  0.80964161     0.35200
H463        H  0.26223459  0.86396166  0.75824531     0.27000
H464        H  0.26325180  0.73872629  0.81706802     0.32900
H465        H  0.24401637  0.70003835  0.79110263     0.38800
H466        H  0.21760064  0.86337357  0.71878215     0.33300
H467        H  0.17565064  0.82161849  0.70112957     0.32100
H468        H  0.16944191  0.73857343  0.70187326     0.33800
H469        H  0.19241442  0.69610844  0.74141923     0.32800
H470        H  0.27336944  0.82773567  0.70786268     0.36800
H471        H  0.27746241  0.78911876  0.68945200     0.29500
H472        H  0.16562609  0.79145374  0.82421017     0.33800
H473        H  0.17157211  0.73129568  0.79327815     0.36600
H474        H  0.19150099  0.80997902  0.68223012     0.29200
H475        H  0.29692977  0.78168704  0.70725264     0.42100
H476        H  0.30398482  0.79420184  0.80952863     0.32100
H477        H  0.26891872  0.84406429  0.77554435     0.23000
H478        H  0.17260134  0.71355477  0.74777701     0.31600
H479        H  0.28767259  0.75054417  0.82008919     0.31700
H480        H  0.18095148  0.76913892  0.82515105     0.31900
Zr481      Zr  0.76346143  0.25688141  0.78038482     2.17500
O482        O  0.79077361  0.27145660  0.80970832    -0.50400
O483        O  0.77033700  0.21614846  0.78398132    -0.73600
O484        O  0.74918740  0.24493977  0.81810756    -0.80400
O485        O  0.80849109  0.26352132  0.73233326    -0.82100
O486        O  0.71040958  0.25369088  0.82146557    -0.77800
O487        O  0.80341552  0.25066162  0.76980487    -0.89400
O488        O  0.74398924  0.19876874  0.76010181    -0.75400
O489        O  0.72498166  0.24196654  0.77666315    -0.84900
O490        O  0.76153200  0.24277136  0.74132311    -0.84500
O491        O  0.73806036  0.28823311  0.78960943    -0.71300
O492        O  0.77237748  0.28903232  0.75561122    -0.83400
Zr493      Zr  0.70477940  0.29142071  0.72104469     2.26400
Zr494      Zr  0.69907434  0.27319795  0.78472058     2.06300
Zr495      Zr  0.76930149  0.27477031  0.71622380     2.10000
Zr496      Zr  0.72290851  0.22807852  0.73768352     1.78800
O497        O  0.80220593  0.29541524  0.69902220    -0.92200
O498        O  0.69264810  0.20236078  0.75245379    -0.40100
O499        O  0.73019693  0.25992607  0.71182517    -0.76700
O500        O  0.69580485  0.25891727  0.74526541    -0.95400
O501        O  0.70737958  0.30519123  0.75997206    -0.88700
O502        O  0.74362332  0.30631523  0.72453853    -0.91500
C503        C  0.76082769  0.19823419  0.77516832     1.02200
C504        C  0.81613810  0.25463369  0.75180425     1.15200
C505        C  0.72965384  0.24477754  0.82917255     1.05900
O506        O  0.66705856  0.24670889  0.79285816    -0.93700
O507        O  0.66320055  0.29425634  0.77304617    -0.89400
O508        O  0.66662684  0.30343987  0.73427792    -0.82600
C509        C  0.65567605  0.30365834  0.75388030     1.12600
O510        O  0.77474989  0.33090473  0.79312169    -0.95600
Zr511      Zr  0.74585059  0.31991289  0.76368993     1.88900
O512        O  0.69921988  0.33233026  0.71644544    -0.72300
O513        O  0.68884210  0.29771276  0.81772450    -0.51600
O514        O  0.72774711  0.34268680  0.79447678    -0.96200
O515        O  0.77551732  0.34616415  0.74860671    -0.53500
O516        O  0.72302803  0.34921460  0.74316609    -0.72800
C517        C  0.70727721  0.35004537  0.72695555     0.99500
O518        O  0.67515555  0.27822422  0.69330748    -0.61600
O519        O  0.77660927  0.24376403  0.68867840    -0.56400
O520        O  0.71686793  0.29850329  0.68157778    -0.93100
O521        O  0.75632076  0.29332949  0.67887352    -0.91500
O522        O  0.74326352  0.20490940  0.70861804    -0.91900
O523        O  0.69561075  0.21555134  0.70737157    -0.90700
C524        C  0.73616515  0.29934138  0.67022999     1.18400
H525        H  0.77294888  0.23081900  0.73868415     0.34300
H526        H  0.67995021  0.25390412  0.74211714     0.45200
H527        H  0.74625047  0.31886977  0.71379265     0.38700
H528        H  0.74048544  0.29288992  0.80571846     0.35200
H529        H  0.69766872  0.18691483  0.74736092     0.27000
H530        H  0.67675252  0.28900970  0.82646817     0.32900
H531        H  0.71064937  0.34100190  0.79187827     0.38800
H532        H  0.73789537  0.18904656  0.71165351     0.33300
H533        H  0.76298680  0.24407553  0.67785700     0.32100
H534        H  0.80755265  0.30593462  0.71153331     0.33800
H535        H  0.77096267  0.34915217  0.73208991     0.32800
H536        H  0.69980325  0.22469945  0.69331735     0.36800
H537        H  0.68317041  0.26632718  0.68391584     0.29500
H538        H  0.79667369  0.25768332  0.81803864     0.33800
H539        H  0.78456437  0.31707083  0.79538064     0.36600
H540        H  0.78991772  0.24923649  0.67901951     0.29200
H541        H  0.66371258  0.26956625  0.70292010     0.42100
H542        H  0.66090893  0.24212775  0.77730842     0.32100
H543        H  0.69489461  0.20223410  0.76970394     0.39800
H544        H  0.78997172  0.33680741  0.74746165     0.31600
H545        H  0.70274656  0.29761650  0.82817978     0.31700
H546        H  0.78086748  0.27941029  0.82139091     0.31900
Zr547      Zr  0.74190777  0.81081424  0.78094209     2.17500
O548        O  0.72512246  0.83253546  0.81330218    -0.50400
O549        O  0.78237273  0.82273608  0.78472299    -0.73600
O550        O  0.75728769  0.79589918  0.81711795    -0.80400
O551        O  0.74028981  0.85508417  0.73289888    -0.82100
O552        O  0.75250757  0.75719015  0.81807181    -0.77800
O553        O  0.74279543  0.85085186  0.77258328    -0.89400
O554        O  0.80324243  0.80142924  0.75886552    -0.75400
O555        O  0.76082308  0.77506736  0.77542900    -0.84900
O556        O  0.75749659  0.81218879  0.74222219    -0.84500
O557        O  0.71220201  0.78268586  0.78809186    -0.71300
O558        O  0.70895933  0.81823833  0.75582683    -0.83400
Zr559      Zr  0.71460479  0.75431264  0.71761232     2.26400
Zr560      Zr  0.73142151  0.74661225  0.78169650     2.06300
Zr561      Zr  0.72477359  0.81865284  0.71672233     2.10000
Zr562      Zr  0.77654877  0.77660330  0.73700908     1.78800
O563        O  0.69364916  0.84625258  0.70894267    -0.92200
O564        O  0.80828433  0.75467060  0.75502789    -0.40100
O565        O  0.74419397  0.78260044  0.71059349    -0.76700
O566        O  0.74764827  0.74714519  0.74274425    -0.95400
O567        O  0.69885333  0.75300817  0.75610484    -0.88700
O568        O  0.69536850  0.79004011  0.72281030    -0.91500
C569        C  0.80168122  0.81673628  0.77498976     1.02200
C570        C  0.74489359  0.86264185  0.75375229     1.15200
C571        C  0.76007755  0.77623416  0.82667535     1.05900
O572        O  0.75839455  0.71555714  0.79122288    -0.93700
O573        O  0.71646761  0.70979046  0.76628699    -0.89400
O574        O  0.71057080  0.71465138  0.72714911    -0.82600
C575        C  0.71052856  0.70233924  0.74576171     1.12600
O576        O  0.66596283  0.81489224  0.79165896    -0.95600
Zr577      Zr  0.68005173  0.78887666  0.76143052     1.88900
O578        O  0.67365469  0.74363204  0.71326933    -0.72300
O579        O  0.70373864  0.73630684  0.81259346    -0.51600
O580        O  0.65561510  0.76988049  0.79061301    -0.96200
O581        O  0.65156396  0.81461257  0.74327788    -0.53500
O582        O  0.65305445  0.76454396  0.73974068    -0.72800
C583        C  0.65448782  0.74944568  0.72344966     0.99500
O584        O  0.73209407  0.73071699  0.68700905    -0.61600
O585        O  0.75048228  0.83438341  0.68657701    -0.56400
O586        O  0.70497533  0.76818290  0.67921530    -0.93100
O587        O  0.70926737  0.80693273  0.67774395    -0.91500
O588        O  0.79701109  0.79611745  0.70518404    -0.91900
O589        O  0.79112516  0.74797837  0.70958032    -0.90700
C590        C  0.70368311  0.78744403  0.66852347     1.18400
H591        H  0.76890814  0.82424590  0.74025282     0.34300
H592        H  0.75445352  0.73239686  0.73923279     0.45200
H593        H  0.68254355  0.79195101  0.71187302     0.38700
H594        H  0.70678613  0.78366201  0.80413992     0.35200
H595        H  0.80305075  0.73851499  0.75447889     0.27000
H596        H  0.70254232  0.71941243  0.81180260     0.32900
H597        H  0.65631759  0.75342717  0.78651352     0.38800
H598        H  0.81326591  0.79806872  0.71100775     0.33300
H599        H  0.74374515  0.84961806  0.68287052     0.32100
H600        H  0.67963686  0.83678140  0.70560642     0.33800
H601        H  0.65703881  0.83022791  0.74720030     0.32800
H602        H  0.78335683  0.75169453  0.69447026     0.36800
H603        H  0.74153412  0.74145135  0.67739695     0.29500
H604        H  0.73880231  0.83828852  0.82225887     0.33800
H605        H  0.67601407  0.82864491  0.79017680     0.36600
H606        H  0.76536371  0.83776751  0.69487253     0.29200
H607        H  0.74395064  0.72120363  0.69523587     0.42100
H608        H  0.75410075  0.71085071  0.80737967     0.32100
H609        H  0.82148516  0.75558737  0.74377494     0.39800
H610        H  0.63703318  0.81252881  0.75255074     0.31600
H611        H  0.71203838  0.73926601  0.82756254     0.31700
H612        H  0.71784408  0.82096165  0.82374374     0.31900
N613        N  0.47920047  0.67624308  0.71905429    -0.02600
C614        C  0.49991950  0.67794591  0.73075018     0.00000
C615        C  0.49614839  0.68016315  0.75459199    -0.22900
C616        C  0.47232320  0.68008962  0.75776310    -0.23100
C617        C  0.46229647  0.67781263  0.73578962    -0.00100
H618        H  0.50922112  0.68329152  0.76801005     0.13700
H619        H  0.46324897  0.68343886  0.77407881     0.13800
N620        N  0.27674335  0.52757309  0.66825706    -0.02600
C621        C  0.26378057  0.50837469  0.67125236     0.00000
C622        C  0.24106973  0.51370531  0.67762504    -0.22900
C623        C  0.23980672  0.53715444  0.67824757    -0.23100
C624        C  0.26181010  0.54520451  0.67219841    -0.00100
H625        H  0.22716834  0.50181000  0.68197146     0.13700
H626        H  0.22473366  0.54724003  0.68338439     0.13800
N627        N  0.48700135  0.38644568  0.71299493    -0.02600
C628        C  0.50423894  0.39017334  0.72920469     0.00000
C629        C  0.49475786  0.39908286  0.74956351    -0.22900
C630        C  0.47100628  0.39966776  0.74645675    -0.23100
C631        C  0.46644371  0.39077365  0.72446317    -0.00100
H632        H  0.50368686  0.40211469  0.76604356     0.13700
H633        H  0.45833591  0.40255108  0.76028517     0.13800
N634        N  0.64314182  0.52785975  0.71178740    -0.02600
C635        C  0.64555259  0.50689732  0.72205552     0.00000
C636        C  0.64951537  0.50904019  0.74588282    -0.22900
C637        C  0.64968342  0.53198170  0.75065389    -0.23100
C638        C  0.64584843  0.54317137  0.72955700    -0.00100
H639        H  0.65367360  0.49539533  0.75813625     0.13700
H640        H  0.65402573  0.53969002  0.76736477     0.13800
N641        N  0.47719865  0.39343500  0.28723381    -0.02600
C642        C  0.49445183  0.39439975  0.27057137     0.00000
C643        C  0.48558122  0.40170385  0.24927420    -0.22900
C644        C  0.46198756  0.40395951  0.25211878    -0.23100
C645        C  0.45692043  0.39780562  0.27504105    -0.00100
H646        H  0.49477988  0.40250239  0.23267857     0.13700
H647        H  0.44951285  0.40627854  0.23793436     0.13800
N648        N  0.68607536  0.53940959  0.34661548    -0.02600
C649        C  0.69532412  0.51923955  0.33891114     0.00000
C650        C  0.71806305  0.52212319  0.33127248    -0.22900
C651        C  0.72334912  0.54470204  0.33420157    -0.23100
C652        C  0.70363979  0.55509532  0.34349821    -0.00100
H653        H  0.72932504  0.50921951  0.32361930     0.13700
H654        H  0.73944383  0.55298689  0.32875658     0.13800
N655        N  0.48460158  0.74996201  0.36683327    -0.02600
C656        C  0.50530920  0.76163939  0.36904708     0.00000
C657        C  0.50096574  0.78354759  0.37720261    -0.22900
C658        C  0.47725383  0.78662296  0.37696371    -0.23100
C659        C  0.46751351  0.76617049  0.36970952    -0.00100
H660        H  0.51352759  0.79742733  0.37819669     0.13700
H661        H  0.46866775  0.80308106  0.37836816     0.13800
N662        N  0.27439282  0.53357723  0.34880611    -0.02600
C663        C  0.26350177  0.51320834  0.35270973     0.00000
C664        C  0.23966259  0.51643392  0.35561014    -0.22900
C665        C  0.23551475  0.53940318  0.35295961    -0.23100
C666        C  0.25697000  0.54948334  0.34855109    -0.00100
H667        H  0.22639201  0.50321321  0.35661521     0.13700
H668        H  0.21845488  0.54751873  0.35197282     0.13800
N669        N  0.61923315  0.74606240  0.49824184    -0.02600
C670        C  0.61991889  0.75887914  0.47825234     0.00000
C671        C  0.62019411  0.78193665  0.48348164    -0.22900
C672        C  0.62007397  0.78351169  0.50745383    -0.23100
C673        C  0.61981277  0.76139629  0.51624473    -0.00100
H674        H  0.62232113  0.79602024  0.47125087     0.13700
H675        H  0.62276907  0.79905207  0.51741183     0.13800
N676        N  0.69856710  0.39086705  0.50502928    -0.02600
C677        C  0.71503038  0.39321299  0.48777834     0.00000
C678        C  0.73602043  0.40092373  0.49681866    -0.22900
C679        C  0.73308542  0.40235474  0.52050382    -0.23100
C680        C  0.71056367  0.39483671  0.52546055    -0.00100
H681        H  0.75257709  0.40248049  0.48767899     0.13700
H682        H  0.74729740  0.40451428  0.53294821     0.13800
N683        N  0.25960856  0.67199294  0.50709244    -0.02600
C684        C  0.24726669  0.67158411  0.48665364     0.00000
C685        C  0.22346530  0.67093263  0.49079761    -0.22900
C686        C  0.22081801  0.67144468  0.51465923    -0.23100
C687        C  0.24308201  0.67264906  0.52439081    -0.00100
H688        H  0.20956563  0.67252881  0.47790632     0.13700
H689        H  0.20436858  0.67411129  0.52374377     0.13800
N690        N  0.27687392  0.38067396  0.50442896    -0.02600
C691        C  0.26318815  0.38632206  0.48556986     0.00000
C692        C  0.24189286  0.39493449  0.49312622    -0.22900
C693        C  0.24147142  0.39265674  0.51704476    -0.23100
C694        C  0.26263813  0.38294406  0.52346974    -0.00100
H695        H  0.22670933  0.39852657  0.48225070     0.13700
H696        H  0.22613006  0.39469609  0.52802101     0.13800
O697        O  0.92248994  0.98964304  0.99503594    -0.85600
O698        O  0.05554813  0.00055958  0.00761061    -0.85700
O699        O  0.99324332  0.97094138  0.95973454    -0.87400
O700        O  0.98810526  0.96228801  0.03533283    -0.86200
O701        O  0.98271101  0.98581218  0.06701176    -0.85800
O702        O  0.99381835  0.00183658  0.93474860    -0.87100
O703        O  0.03078073  0.97030686  0.00131109    -0.85600
O704        O  0.95392252  0.96520249  0.99432191    -0.85200
Zr705      Zr  0.99054063  0.98580829  0.99990700     2.84300
O706        O  0.00991980  0.00769464  0.02833690    -1.07200
O707        O  0.96687624  0.00972010  0.97674984    -1.07900
C708        C  0.93168973  0.96938700  0.99339444     1.07500
C709        C  0.05145671  0.97908320  0.00442289     1.07500
C710        C  0.99412138  0.98004678  0.93897207     1.10500
C711        C  0.98492835  0.96566735  0.05753156     1.08200
H712        H  0.02519923  0.00521957  0.97138116     0.33800
O713        O  0.01390522  0.01305699  0.98108969    -1.28100
H714        H  0.95281880  0.99322064  0.03130717     0.33500
O715        O  0.96264432  0.00438470  0.02355762    -1.29800
O716        O  0.04903096  0.07356300  0.01468874    -0.85600
O717        O  0.91621511  0.06411459  0.00174652    -0.87100
O718        O  0.02999661  0.03958848  0.94170860    -0.85600
O719        O  0.01965592  0.02529053  0.07416188    -0.85700
O720        O  0.94236363  0.02370598  0.06791305    -0.85400
O721        O  0.95456048  0.03417695  0.93470098    -0.85200
O722        O  0.98410761  0.10089584  0.97266805    -0.85600
O723        O  0.97871873  0.09285807  0.05040774    -0.85000
O724        O  0.98942815  0.07571958  0.94231296    -0.86100
O725        O  0.97902903  0.06155744  0.07492833    -0.85300
O726        O  0.05515417  0.03919146  0.97316354    -0.85700
O727        O  0.92348799  0.02876443  0.95962257    -0.85400
O728        O  0.91693899  0.02497625  0.03667569    -0.85000
O729        O  0.04977095  0.03175720  0.04841121    -0.85400
O730        O  0.01904838  0.09986460  0.01297434    -0.85700
O731        O  0.94196719  0.09358757  0.00825925    -0.87100
Zr732      Zr  0.03271551  0.03548095  0.00937821     2.83100
Zr733      Zr  0.93895971  0.02833164  0.00002474     2.83500
Zr734      Zr  0.99035989  0.03688498  0.95788844     2.84100
Zr735      Zr  0.98231530  0.02600708  0.05217675     2.83400
Zr736      Zr  0.98207470  0.07830614  0.00962787     2.84200
O737        O  0.95908554  0.05009026  0.02824063    -1.07600
O738        O  0.00963543  0.05950542  0.98586252    -1.07100
C739        C  0.04099136  0.09423048  0.01470325     1.07500
C740        C  0.92101058  0.08556161  0.00510835     1.10100
C741        C  0.05077069  0.03965530  0.95087793     1.07700
C742        C  0.04173732  0.02778551  0.06921454     1.08000
C743        C  0.92145560  0.02402718  0.05893417     1.07600
C744        C  0.93257083  0.03073886  0.93885699     1.07200
C745        C  0.98689314  0.09614981  0.95054345     1.07600
C746        C  0.97823751  0.08347269  0.07116937     1.07100
H747        H  0.95283230  0.06552596  0.97141669     0.33800
O748        O  0.96253703  0.05588338  0.98126254    -1.28700
H749        H  0.01371531  0.06289737  0.04470749     0.33800
O750        O  0.00533575  0.05395253  0.03319429    -1.30100
O751        O  0.46993868  0.59258846  0.55101777    -0.85600
O752        O  0.48636061  0.46262653  0.53863148    -0.85700
O753        O  0.43916194  0.52306889  0.57148585    -0.87400
O754        O  0.51554479  0.52864169  0.57476923    -0.86200
O755        O  0.54455562  0.53580621  0.54793399    -0.85800
O756        O  0.41208425  0.52079281  0.54169376    -0.87100
O757        O  0.48027549  0.48781805  0.56897118    -0.85600
O758        O  0.47277362  0.56190033  0.57611942    -0.85200
Zr759      Zr  0.47802024  0.52673813  0.55364317     2.84300
O760        O  0.50487895  0.50856144  0.52874895    -1.07200
O761        O  0.45212556  0.54919267  0.53152732    -1.07900
C762        C  0.47020895  0.58352052  0.57174611     1.07500
C763        C  0.48351772  0.46749817  0.56066071     1.07500
C764        C  0.41794289  0.52110433  0.56362177     1.10500
C765        C  0.53726248  0.53235339  0.56923137     1.08200
H766        H  0.44884990  0.49205437  0.53541011     0.33800
O767        O  0.45787950  0.50334547  0.52691726    -1.28100
H768        H  0.50745732  0.56463537  0.54454124     0.33500
O769        O  0.49910088  0.55506711  0.53354993    -1.29800
O770        O  0.48475217  0.47079818  0.46119914    -0.85600
O771        O  0.47292348  0.60114287  0.47598307    -0.87100
O772        O  0.41744837  0.48741670  0.49969509    -0.85600
O773        O  0.54978057  0.50205547  0.50583273    -0.85700
O774        O  0.54080294  0.57651928  0.51039840    -0.85400
O775        O  0.40796975  0.56009993  0.50946068    -0.85200
O776        O  0.44216562  0.53705103  0.43824041    -0.85600
O777        O  0.51944815  0.54102344  0.44084618    -0.85000
O778        O  0.41434368  0.52860850  0.46600821    -0.86100
O779        O  0.54602592  0.54124965  0.47113522    -0.85300
O780        O  0.44824180  0.46202688  0.50027562    -0.85700
O781        O  0.43187494  0.59135697  0.51340308    -0.85400
O782        O  0.50874570  0.60013899  0.51284579    -0.85000
O783        O  0.52558454  0.47107309  0.50099466    -0.85400
O784        O  0.48223837  0.50186514  0.43643275    -0.85700
O785        O  0.47926637  0.57790364  0.44431098    -0.87100
Zr786      Zr  0.48466278  0.48516546  0.50182181     2.83100
Zr787      Zr  0.47282872  0.57752046  0.51132431     2.83500
Zr788      Zr  0.43248191  0.52618409  0.50452291     2.84100
Zr789      Zr  0.52602559  0.53696060  0.50869090     2.83400
Zr790      Zr  0.48026681  0.53753683  0.45885491     2.84200
O791        O  0.50015520  0.55982068  0.48656012    -1.07600
O792        O  0.45953966  0.50883331  0.47943771    -1.07100
C793        C  0.48363641  0.48004847  0.44046359     1.07500
C794        C  0.47634015  0.59796749  0.45381208     1.10100
C795        C  0.42603316  0.46693223  0.49916713     1.07700
C796        C  0.54620555  0.48033922  0.50295308     1.08000
C797        C  0.53112315  0.59657351  0.51175709     1.07600
C798        C  0.41134989  0.58176238  0.51261410     1.07200
C799        C  0.42074795  0.53306733  0.44473809     1.07600
C800        C  0.54069079  0.54181802  0.44905009     1.07100
H801        H  0.44215769  0.56439163  0.47513335     0.33800
O802        O  0.45287725  0.55486880  0.48399228    -1.28700
H803        H  0.51648969  0.50659825  0.47128928     0.33800
O804        O  0.50548706  0.51406632  0.48161425    -1.30100
C805        C  0.33547866  0.40602227  0.52188484    -0.27300
C806        C  0.34852192  0.40312157  0.50131772     0.06300
C807        C  0.33885585  0.39001990  0.48303931     0.25900
C808        C  0.31609269  0.38091612  0.48501050    -0.11800
C809        C  0.30208913  0.38525011  0.50493466    -0.25700
C810        C  0.31255206  0.39758888  0.52369529     0.36800
C811        C  0.37031772  0.41682390  0.49801652     0.06300
F812        F  0.35105317  0.38686730  0.46286216    -0.19500
H813        H  0.30905929  0.37142671  0.47035349     0.16200
F814        F  0.30020223  0.40353417  0.54306322    -0.23200
H815        H  0.34245858  0.41638177  0.53601615     0.18000
C816        C  0.36991857  0.43598774  0.48303425     0.26000
C817        C  0.38867810  0.45144284  0.48276802    -0.11700
C818        C  0.40846875  0.44810493  0.49719801    -0.25800
C819        C  0.40946305  0.42825329  0.51136502     0.36900
C820        C  0.39036925  0.41292632  0.51195382    -0.27400
F821        F  0.35061982  0.44063733  0.46982870    -0.19500
H822        H  0.38738505  0.46657693  0.47175928     0.16200
F823        F  0.42803912  0.42451264  0.52583826    -0.23200
H824        H  0.39087847  0.39841953  0.52386317     0.18000
C825        C  0.34730594  0.60018336  0.51909257    -0.27300
C826        C  0.34848775  0.62404141  0.51594473     0.06300
C827        C  0.37082456  0.63422776  0.51404109     0.25900
C828        C  0.39123202  0.62057287  0.51357304    -0.11800
C829        C  0.38988791  0.59649332  0.51523049    -0.25700
C830        C  0.36755192  0.58658624  0.51885581     0.36800
C831        C  0.32620638  0.63751752  0.51325203     0.06300
F832        F  0.37291867  0.65725482  0.51153598    -0.19500
H833        H  0.40805728  0.62886475  0.51122492     0.16200
F834        F  0.36504904  0.56366615  0.52211005    -0.23200
H835        H  0.33045549  0.59191549  0.52143467     0.18000
C836        C  0.30864518  0.62977497  0.49780858     0.26000
C837        C  0.28716810  0.64120674  0.49608542    -0.11700
C838        C  0.28248844  0.66108367  0.50923322    -0.25800
C839        C  0.30031019  0.66940069  0.52412367     0.36900
C840        C  0.32189913  0.65765889  0.52614663    -0.27400
F841        F  0.31234644  0.61120183  0.48401546    -0.19500
H842        H  0.27394975  0.63431091  0.48440992     0.16200
F843        F  0.29719892  0.68902034  0.53631924    -0.23200
H844        H  0.33513438  0.66414573  0.53804925     0.18000
C845        C  0.63345982  0.40247747  0.51391340    -0.27300
C846        C  0.62996824  0.42166000  0.49917428     0.06300
C847        C  0.64857256  0.42835933  0.48445386     0.25900
C848        C  0.67040982  0.41744629  0.48574814    -0.11800
C849        C  0.67460679  0.39919438  0.50153418    -0.25700
C850        C  0.65547998  0.39134834  0.51511852     0.36800
C851        C  0.60807201  0.43605715  0.50041289     0.06300
F852        F  0.64584405  0.44596757  0.46904115    -0.19500
H853        H  0.68445762  0.42407955  0.47492590     0.16200
F854        F  0.65798784  0.37320593  0.52979588    -0.23200
H855        H  0.61944672  0.39669740  0.52529608     0.18000
C856        C  0.58528617  0.42666426  0.49960782     0.26000
C857        C  0.56533280  0.44099459  0.50042308    -0.11700
C858        C  0.56751118  0.46505053  0.50190846    -0.25800
C859        C  0.59043142  0.47428935  0.50251174     0.36900
C860        C  0.61017337  0.45999119  0.50211432    -0.27400
F861        F  0.58223493  0.40373130  0.49733831    -0.19500
H862        H  0.54812090  0.43318272  0.49975796     0.16200
F863        F  0.59406622  0.49725127  0.50323953    -0.23200
H864        H  0.62737209  0.46780999  0.50312267     0.18000
C865        C  0.57690033  0.69738097  0.48993149    -0.27300
C866        C  0.58646878  0.68020986  0.50438658     0.06300
C867        C  0.60784592  0.68462676  0.51602477     0.25900
C868        C  0.61892170  0.70608582  0.51371360    -0.11800
C869        C  0.60898267  0.72338718  0.49961989    -0.25700
C870        C  0.58783506  0.71868323  0.48765644     0.36800
C871        C  0.57319084  0.65842271  0.50796955     0.06300
F872        F  0.61745587  0.66858596  0.53042629    -0.19500
H873        H  0.63509874  0.70928546  0.52311321     0.16200
F874        F  0.57707452  0.73510172  0.47455742    -0.23200
H875        H  0.56055890  0.69442454  0.48067303     0.18000
C876        C  0.54939475  0.65911262  0.51442589     0.26000
C877        C  0.53631054  0.63896342  0.51627801    -0.11700
C878        C  0.54640888  0.61742313  0.51162947    -0.25800
C879        C  0.57049655  0.61662932  0.50580499     0.36900
C880        C  0.58368410  0.63695199  0.50406536    -0.27400
F881        F  0.53868029  0.67939018  0.51897512    -0.19500
H882        H  0.51799245  0.64038602  0.52109286     0.16200
F883        F  0.58119943  0.59639985  0.50104144    -0.23200
H884        H  0.60195215  0.63596806  0.49895579     0.18000
C885        C  0.38354279  0.54824928  0.39085421    -0.27300
C886        C  0.36231430  0.53736834  0.39657627     0.06300
C887        C  0.36100384  0.52423487  0.41720915     0.25900
C888        C  0.38034690  0.52238265  0.43209932    -0.11800
C889        C  0.40151306  0.53376204  0.42700462    -0.25700
C890        C  0.40302408  0.54661656  0.40600910     0.36800
C891        C  0.34100555  0.54015541  0.38187901     0.06300
F892        F  0.34080209  0.51333406  0.42310361    -0.19500
H893        H  0.37856350  0.51219780  0.44794205     0.16200
F894        F  0.42281703  0.55843029  0.40065779    -0.23200
H895        H  0.38476646  0.55857468  0.37505839     0.18000
C896        C  0.32102151  0.55066826  0.39140277     0.26000
C897        C  0.29959726  0.54976482  0.37952681    -0.11700
C898        C  0.29753414  0.53821954  0.35799812    -0.25800
C899        C  0.31782635  0.52880980  0.34779957     0.36900
C900        C  0.33945286  0.52988211  0.35965842    -0.27400
F901        F  0.32199204  0.56077362  0.41282508    -0.19500
H902        H  0.28418468  0.55693305  0.38783301     0.16200
F903        F  0.31662881  0.51804528  0.32679718    -0.23200
H904        H  0.35469955  0.52166544  0.35208824     0.18000
C905        C  0.49756440  0.68731829  0.38143799    -0.27300
C906        C  0.47827297  0.68146414  0.39559827     0.06300
C907        C  0.45996532  0.69749116  0.39765244     0.25900
C908        C  0.46160303  0.71921360  0.38710418    -0.11800
C909        C  0.48156761  0.72592003  0.37401777    -0.25700
C910        C  0.49927837  0.70913895  0.37078248     0.36800
C911        C  0.47810229  0.65976713  0.40994602     0.06300
F912        F  0.44057207  0.69233154  0.41042460    -0.19500
H913        H  0.44747799  0.73115282  0.39031159     0.16200
F914        F  0.51857783  0.71368016  0.35776972    -0.23200
H915        H  0.51187368  0.67527255  0.37939502     0.18000
C916        C  0.48021728  0.63785866  0.39981454     0.26000
C917        C  0.47947845  0.61789230  0.41392708    -0.11700
C918        C  0.47709109  0.61922746  0.43856191    -0.25800
C919        C  0.47577904  0.64139302  0.44859919     0.36900
C920        C  0.47599856  0.66113415  0.43445909    -0.27400
F921        F  0.48254460  0.63570765  0.37621998    -0.19500
H922        H  0.48079899  0.60134988  0.40550249     0.16200
F923        F  0.47461213  0.64429416  0.47221868    -0.23200
H924        H  0.47486900  0.67774017  0.44281467     0.18000
C925        C  0.57807143  0.54748360  0.39317470    -0.27300
C926        C  0.60090649  0.54378039  0.40208976     0.06300
C927        C  0.60334580  0.53939734  0.42632794     0.25900
C928        C  0.58378953  0.53906252  0.44107025    -0.11800
C929        C  0.56095976  0.54279555  0.43233935    -0.25700
C930        C  0.55829389  0.54685971  0.40802075     0.36800
C931        C  0.62216867  0.54429408  0.38644895     0.06300
F932        F  0.62464837  0.53468519  0.43589339    -0.19500
H933        H  0.58668481  0.53545056  0.45952310     0.16200
F934        F  0.53671490  0.55044840  0.39855043    -0.23200
H935        H  0.57550280  0.55115393  0.37469750     0.18000
C936        C  0.62246788  0.53329835  0.36441583     0.26000
C937        C  0.64318003  0.53247088  0.35101958    -0.11700
C938        C  0.66415327  0.54234964  0.35924375    -0.25800
C939        C  0.66373515  0.55367540  0.38100714     0.36900
C940        C  0.64299051  0.55492106  0.39415328    -0.27400
F941        F  0.60308674  0.52243134  0.35622222    -0.19500
H942        H  0.64287727  0.52378008  0.33429978     0.16200
F943        F  0.68372373  0.56248243  0.39025488    -0.23200
H944        H  0.64339753  0.56392203  0.41073488     0.18000
C945        C  0.50124637  0.42441439  0.34057672    -0.27300
C946        C  0.48344383  0.42121044  0.35726646     0.06300
C947        C  0.46475734  0.40644522  0.35141249     0.25900
C948        C  0.46350655  0.39622008  0.32898904    -0.11800
C949        C  0.48070006  0.40051183  0.31168541    -0.25700
C950        C  0.49985992  0.41469011  0.31817719     0.36800
C951        C  0.48347122  0.43559986  0.37914606     0.06300
F952        F  0.44683943  0.40309879  0.36669728    -0.19500
H953        H  0.44851748  0.38562717  0.32491181     0.16200
F954        F  0.51651291  0.42098103  0.30246615    -0.23200
H955        H  0.51592329  0.43555963  0.34449210     0.18000
C956        C  0.47878929  0.42663505  0.40172291     0.26000
C957        C  0.47903546  0.44099474  0.42158310    -0.11700
C958        C  0.48387395  0.46461075  0.41946987    -0.25800
C959        C  0.48861617  0.47342350  0.39686151     0.36900
C960        C  0.48842465  0.45913435  0.37719679    -0.27400
F961        F  0.47452683  0.40395982  0.40476864    -0.19500
H962        H  0.47527253  0.43360011  0.43863822     0.16200
F963        F  0.49366592  0.49592761  0.39355566    -0.23200
H964        H  0.49191714  0.46668968  0.36015549     0.18000
C965        C  0.59562280  0.54513772  0.66948353    -0.27300
C966        C  0.60336179  0.53544587  0.64829522     0.06300
C967        C  0.62597996  0.52557288  0.64774035     0.25900
C968        C  0.63949432  0.52372830  0.66842404    -0.11800
C969        C  0.63105270  0.53233058  0.68982718    -0.25700
C970        C  0.60926118  0.54373378  0.68992428     0.36800
C971        C  0.58695922  0.53431197  0.62766785     0.06300
F972        F  0.63453823  0.51667746  0.62751503    -0.19500
H973        H  0.65634743  0.51519873  0.66783974     0.16200
F974        F  0.60045871  0.55234465  0.71018900    -0.23200
H975        H  0.57857511  0.55330809  0.67036971     0.18000
C976        C  0.56401218  0.52581607  0.63054369     0.26000
C977        C  0.54827801  0.52516422  0.61158306    -0.11700
C978        C  0.55486628  0.53275136  0.58900462    -0.25800
C979        C  0.57808134  0.54082593  0.58600317     0.36900
C980        C  0.59382347  0.54161569  0.60512484    -0.27400
F981        F  0.55688793  0.51759379  0.65169959    -0.19500
H982        H  0.53081920  0.51850852  0.61466775     0.16200
F983        F  0.58558022  0.54834006  0.56472453    -0.23200
H984        H  0.61133038  0.54828967  0.60236465     0.18000
C985        C  0.50299273  0.41814265  0.60004360    -0.27300
C986        C  0.48580533  0.41908724  0.61775018     0.06300
C987        C  0.46677191  0.43414934  0.61493628     0.25900
C988        C  0.46565261  0.44887080  0.59554634    -0.11800
C989        C  0.48326534  0.44873451  0.57831569    -0.25700
C990        C  0.50157730  0.43262236  0.58022657     0.36800
C991        C  0.48909802  0.40711083  0.64064137     0.06300
F992        F  0.45010062  0.43579683  0.63184174    -0.19500
H993        H  0.45137512  0.46110656  0.59442707     0.16200
F994        F  0.51891147  0.43203545  0.56392149    -0.23200
H995        H  0.51790953  0.40678287  0.60200807     0.18000
C996        C  0.47403288  0.38940257  0.64792308     0.26000
C997        C  0.47431469  0.38164202  0.67137248    -0.11700
C998        C  0.48972892  0.39128188  0.68800354    -0.25800
C999        C  0.50575685  0.40817476  0.68006225     0.36900
C1000       C  0.50533050  0.41588112  0.65674075    -0.27400
F1001       F  0.45857936  0.38013287  0.63249836    -0.19500
H1002       H  0.46196126  0.36857979  0.67670047     0.16200
F1003       F  0.52075957  0.41864217  0.69510215    -0.23200
H1004       H  0.51687218  0.42974184  0.65155538     0.18000
C1005       C  0.35845455  0.51011363  0.59117848    -0.27300
C1006       C  0.35979316  0.52342467  0.61164127     0.06300
C1007       C  0.38109911  0.53432913  0.61716483     0.25900
C1008       C  0.40032659  0.53258832  0.60199204    -0.11800
C1009       C  0.39862531  0.52013143  0.58097768    -0.25700
C1010       C  0.37759489  0.50848833  0.57594361     0.36800
C1011       C  0.33874462  0.52610655  0.62675229     0.06300
F1012       F  0.38298734  0.54758561  0.63660527    -0.19500
H1013       H  0.41623921  0.54185079  0.60618089     0.16200
F1014       F  0.37549520  0.49555820  0.55628222    -0.23200
H1015       H  0.34241738  0.50109458  0.58687587     0.18000
C1016       C  0.31704491  0.53260898  0.61690387     0.26000
C1017       C  0.29700651  0.53389095  0.63094132    -0.11700
C1018       C  0.29815842  0.52874458  0.65497269    -0.25800
C1019       C  0.31990887  0.52300306  0.66505040     0.36900
C1020       C  0.34002918  0.52166967  0.65100976    -0.27400
F1021       F  0.31520684  0.53769487  0.59368636    -0.19500
H1022       H  0.28032659  0.53834568  0.62299036     0.16200
F1023       F  0.32174773  0.51871916  0.68837682    -0.23200
H1024       H  0.35653213  0.51666325  0.65898888     0.18000
C1025       C  0.48553737  0.63283544  0.67125012    -0.27300
C1026       C  0.47073837  0.64152620  0.65366864     0.06300
C1027       C  0.45879837  0.66228466  0.65760575     0.25900
C1028       C  0.46163928  0.67394679  0.67900393    -0.11800
C1029       C  0.47649835  0.66509348  0.69659637    -0.25700
C1030       C  0.48833452  0.64432964  0.69243242     0.36800
C1031       C  0.46753429  0.62791511  0.63195893     0.06300
F1032       F  0.44387956  0.67083181  0.64114749    -0.19500
H1033       H  0.45227200  0.68980092  0.68178390     0.16200
F1034       F  0.50209770  0.63468065  0.70924812    -0.23200
H1035       H  0.49484802  0.61685729  0.66863036     0.18000
C1036       C  0.47263614  0.63697168  0.60962670     0.26000
C1037       C  0.47275985  0.62263803  0.58991459    -0.11700
C1038       C  0.46784322  0.59907637  0.59217569    -0.25800
C1039       C  0.46155391  0.59042105  0.61441155     0.36900
C1040       C  0.46152158  0.60469337  0.63398585    -0.27400
F1041       F  0.47879190  0.65929294  0.60705690    -0.19500
H1042       H  0.47757820  0.62983567  0.57303804     0.16200
F1043       F  0.45563305  0.56808631  0.61741086    -0.23200
H1044       H  0.45727691  0.59744736  0.65100291     0.18000
C1045       C  0.66312816  0.79354791  0.61591500    -0.27300
C1046       C  0.66853433  0.77334887  0.60342214     0.06300
C1047       C  0.68778346  0.76011967  0.61110702     0.25900
C1048       C  0.70046563  0.76639739  0.63104733    -0.11800
C1049       C  0.69431365  0.78578752  0.64424996    -0.25700
C1050       C  0.67586284  0.79973889  0.63615203     0.36800
C1051       C  0.65475786  0.76646883  0.58209202     0.06300
F1052       F  0.69369380  0.74031728  0.60019054    -0.19500
H1053       H  0.71449024  0.75522855  0.63699853     0.16200
F1054       F  0.66923945  0.81849283  0.64850021    -0.23200
H1055       H  0.64889581  0.80450371  0.61013352     0.18000
C1056       C  0.63008088  0.76863143  0.58100311     0.26000
C1057       C  0.61802114  0.76443275  0.55989571    -0.11700
C1058       C  0.63012077  0.75725017  0.53975169    -0.25800
C1059       C  0.65441480  0.75353776  0.54129485     0.36900
C1060       C  0.66655058  0.75835875  0.56206068    -0.27400
F1061       F  0.61764797  0.77541576  0.60006356    -0.19500
H1062       H  0.59939437  0.76803701  0.55888674     0.16200
F1063       F  0.66684638  0.74776004  0.52188015    -0.23200
H1064       H  0.68548917  0.75702969  0.56190177     0.18000
C1065       C  0.68765256  0.64175695  0.75715821    -0.27300
C1066       C  0.68154594  0.63481237  0.73424499     0.06300
C1067       C  0.68610477  0.64975381  0.71546047     0.25900
C1068       C  0.69656118  0.67094402  0.71951119    -0.11800
C1069       C  0.70211896  0.67835276  0.74245495    -0.25700
C1070       C  0.69766538  0.66333512  0.76132001     0.36800
C1071       C  0.66986198  0.61233344  0.73030435     0.06300
F1072       F  0.67936944  0.64449236  0.69324426    -0.19500
H1073       H  0.69950897  0.68192762  0.70443430     0.16200
F1074       F  0.70235144  0.66958818  0.78377090    -0.23200
H1075       H  0.68442838  0.63049462  0.77196285     0.18000
C1076       C  0.67729564  0.59721676  0.71249315     0.26000
C1077       C  0.66741013  0.57533281  0.71065353    -0.11700
C1078       C  0.65047863  0.56795286  0.72682680    -0.25800
C1079       C  0.64219879  0.58340544  0.74377876     0.36900
C1080       C  0.65164407  0.60540864  0.74530433    -0.27400
F1081       F  0.69540178  0.60275759  0.69810667    -0.19500
H1082       H  0.67443233  0.56348458  0.69785863     0.16200
F1083       F  0.62584487  0.57677476  0.75971366    -0.23200
H1084       H  0.64526902  0.61681056  0.75883481     0.18000
C1085       C  0.61139446  0.70260140  0.70702188    -0.27300
C1086       C  0.58980286  0.71408845  0.70898382     0.06300
C1087       C  0.58985872  0.73771431  0.71392743     0.25900
C1088       C  0.61101528  0.74926590  0.71771379    -0.11800
C1089       C  0.63255020  0.73762006  0.71653546    -0.25700
C1090       C  0.63258436  0.71421878  0.71063449     0.36800
C1091       C  0.56747905  0.70091541  0.70954950     0.06300
F1092       F  0.56943116  0.74932413  0.71685552    -0.19500
H1093       H  0.61052013  0.76725673  0.72228344     0.16200
F1094       F  0.65294774  0.70218441  0.70997543    -0.23200
H1095       H  0.61179393  0.68437524  0.70354637     0.18000
C1096       C  0.54743095  0.70819024  0.69704060     0.26000
C1097       C  0.52540317  0.69872569  0.70213901    -0.11700
C1098       C  0.52312360  0.68207863  0.71985408    -0.25800
C1099       C  0.54346033  0.67307241  0.73039358     0.36900
C1100       C  0.56541784  0.68240104  0.72523759    -0.27400
F1101       F  0.54893754  0.72529913  0.68090257    -0.19500
H1102       H  0.50994303  0.70578679  0.69368996     0.16200
F1103       F  0.54189035  0.65631330  0.74690966    -0.23200
H1104       H  0.58059240  0.67628466  0.73489163     0.18000
C1105       C  0.70780027  0.32023875  0.61391443    -0.27300
C1106       C  0.72474916  0.33520284  0.60493806     0.06300
C1107       C  0.74704375  0.33585155  0.61581634     0.25900
C1108       C  0.75157637  0.32284557  0.63621793    -0.11800
C1109       C  0.73398239  0.30896360  0.64602802    -0.25700
C1110       C  0.71228487  0.30722888  0.63404419     0.36800
C1111       C  0.71842731  0.35085224  0.58513684     0.06300
F1112       F  0.76429956  0.34932183  0.60692544    -0.19500
H1113       H  0.76837226  0.32454569  0.64496830     0.16200
F1114       F  0.69486009  0.29357218  0.64231845    -0.23200
H1115       H  0.69057408  0.31932713  0.60589522     0.18000
C1116       C  0.70813258  0.34248387  0.56434460     0.26000
C1117       C  0.70334921  0.35733462  0.54550980    -0.11700
C1118       C  0.70788668  0.38093233  0.54727050    -0.25800
C1119       C  0.71641893  0.38948514  0.56877830     0.36900
C1120       C  0.72188674  0.37456029  0.58733319    -0.27400
F1121       F  0.70395660  0.31975811  0.56168885    -0.19500
H1122       H  0.69752649  0.35012552  0.52899688     0.16200
F1123       F  0.72096288  0.41217317  0.57125763    -0.23200
H1124       H  0.72909710  0.38152144  0.60340755     0.18000
C1125       C  0.61400148  0.35305585  0.74487263    -0.27300
C1126       C  0.59204867  0.34212514  0.74418718     0.06300
C1127       C  0.59105881  0.31840408  0.74911911     0.25900
C1128       C  0.61169294  0.30594617  0.75383170    -0.11800
C1129       C  0.63356682  0.31692421  0.75384449    -0.25700
C1130       C  0.63447609  0.34065870  0.74966855     0.36800
C1131       C  0.57050216  0.35561989  0.73822206     0.06300
F1132       F  0.57018501  0.30724065  0.74933143    -0.19500
H1133       H  0.61068271  0.28761108  0.75661819     0.16200
F1134       F  0.65536852  0.35178144  0.74962408    -0.23200
H1135       H  0.61543998  0.37117465  0.74098081     0.18000
C1136       C  0.56612702  0.37685648  0.74898402     0.26000
C1137       C  0.54557385  0.38903292  0.74400045    -0.11700
C1138       C  0.52840003  0.38016098  0.72875259    -0.25800
C1139       C  0.53334885  0.35958355  0.71687098     0.36900
C1140       C  0.55420539  0.34751684  0.72158770    -0.27400
F1141       F  0.58099899  0.38526455  0.76547827    -0.19500
H1142       H  0.54255561  0.40498291  0.75315312     0.16200
F1143       F  0.51753039  0.35032391  0.70182239    -0.23200
H1144       H  0.55741432  0.33154258  0.71253739     0.18000
C1145       C  0.66892295  0.39725045  0.70004927    -0.27300
C1146       C  0.67838349  0.41686577  0.71063800     0.06300
C1147       C  0.69727874  0.41431108  0.72635870     0.25900
C1148       C  0.70674138  0.39271226  0.73105588    -0.11800
C1149       C  0.69753253  0.37295349  0.72044388    -0.25700
C1150       C  0.67840282  0.37549195  0.70474442     0.36800
C1151       C  0.66787797  0.43988507  0.70665532     0.06300
F1152       F  0.70602518  0.43266176  0.73802321    -0.19500
H1153       H  0.72113620  0.39150512  0.74344425     0.16200
F1154       F  0.66843354  0.35702532  0.69430568    -0.23200
H1155       H  0.65412303  0.39879771  0.68817851     0.18000
C1156       C  0.68215988  0.45868836  0.70071549     0.26000
C1157       C  0.67345428  0.48103542  0.70244640    -0.11700
C1158       C  0.65045719  0.48500110  0.71019150    -0.25800
C1159       C  0.63555311  0.46620981  0.71404004     0.36900
C1160       C  0.64414946  0.44379130  0.71200815    -0.27400
F1161       F  0.70505116  0.45550394  0.69500656    -0.19500
H1162       H  0.68539187  0.49528623  0.70003743     0.16200
F1163       F  0.61342622  0.46959367  0.72209492    -0.23200
H1164       H  0.63283717  0.42958141  0.71664638     0.18000
C1165       C  0.24826605  0.74444236  0.61442883    -0.27300
C1166       C  0.23115170  0.72949469  0.60559483     0.06300
C1167       C  0.20916485  0.72841588  0.61690842     0.25900
C1168       C  0.20532372  0.74033881  0.63786341    -0.11800
C1169       C  0.22326235  0.75362435  0.64771826    -0.25700
C1170       C  0.24430590  0.75660671  0.63510034     0.36800
C1171       C  0.23678332  0.71427288  0.58545124     0.06300
F1172       F  0.19161643  0.71531306  0.60807264    -0.19500
H1173       H  0.18892098  0.73795532  0.64713715     0.16200
F1174       F  0.26158691  0.77038646  0.64345131    -0.23200
H1175       H  0.26522279  0.74585358  0.60599837     0.18000
C1176       C  0.24760954  0.72288228  0.56504243     0.26000
C1177       C  0.25183567  0.70847498  0.54591411    -0.11700
C1178       C  0.24559443  0.68521126  0.54676023    -0.25800
C1179       C  0.23541052  0.67645759  0.56738048     0.36900
C1180       C  0.23134976  0.69079364  0.58660721    -0.27400
F1181       F  0.25267471  0.74551137  0.56294464    -0.19500
H1182       H  0.25857093  0.71584313  0.52978463     0.16200
F1183       F  0.22809313  0.65435832  0.56837991    -0.23200
H1184       H  0.22340107  0.68362779  0.60225738     0.18000
C1185       C  0.34913657  0.70537539  0.73467596    -0.27300
C1186       C  0.36999288  0.71488194  0.74315601     0.06300
C1187       C  0.36906140  0.73517898  0.75645474     0.25900
C1188       C  0.34746833  0.74570154  0.76123895    -0.11800
C1189       C  0.32663431  0.73643057  0.75229231    -0.25700
C1190       C  0.32770402  0.71611517  0.73890728     0.36800
C1191       C  0.39269009  0.70373339  0.73783947     0.06300
F1192       F  0.38906893  0.74483072  0.76474063    -0.19500
H1193       H  0.34711299  0.76151813  0.77111017     0.16200
F1194       F  0.30799051  0.70674748  0.72957285    -0.23200
H1195       H  0.34952582  0.68990064  0.72423742     0.18000
C1196       C  0.39718168  0.68102094  0.74490016     0.26000
C1197       C  0.41961511  0.67161418  0.74207428    -0.11700
C1198       C  0.43767817  0.68457110  0.73186074    -0.25800
C1199       C  0.43284129  0.70690344  0.72391873     0.36900
C1200       C  0.41047003  0.71628288  0.72670014    -0.27400
F1201       F  0.38043209  0.66860046  0.75610501    -0.19500
H1202       H  0.42330359  0.65473676  0.74915534     0.16200
F1203       F  0.45034380  0.72044863  0.71564228    -0.23200
H1204       H  0.40729001  0.73377550  0.72111809     0.18000
C1205       C  0.26124474  0.63955726  0.72192041    -0.27300
C1206       C  0.26975662  0.63814371  0.69888928     0.06300
C1207       C  0.27264396  0.65822926  0.68564155     0.25900
C1208       C  0.26640548  0.67939314  0.69513835    -0.11800
C1209       C  0.25694446  0.68084539  0.71792464    -0.25700
C1210       C  0.25474910  0.66064598  0.73139397     0.36800
C1211       C  0.27208455  0.61544071  0.68794478     0.06300
F1212       F  0.28105516  0.65728839  0.66338059    -0.19500
H1213       H  0.26841758  0.69458761  0.68435445     0.16200
F1214       F  0.24599682  0.66109820  0.75354853    -0.23200
H1215       H  0.25864124  0.62412375  0.73222108     0.18000
C1216       C  0.28762504  0.59893573  0.69705549     0.26000
C1217       C  0.28591798  0.57610924  0.68982297    -0.11700
C1218       C  0.26830477  0.56952969  0.67397360    -0.25800
C1219       C  0.25372834  0.58630948  0.66387766     0.36900
C1220       C  0.25584388  0.60914719  0.67062455    -0.27400
F1221       F  0.30340801  0.60465824  0.71392245    -0.19500
H1222       H  0.29698825  0.56329721  0.69807994     0.16200
F1223       F  0.23637642  0.58034198  0.64872688    -0.23200
H1224       H  0.24357210  0.62164483  0.66365995     0.18000
C1225       C  0.26877603  0.33224261  0.56483188    -0.27300
C1226       C  0.25780355  0.34070514  0.58517146     0.06300
C1227       C  0.25231233  0.36421278  0.58614820     0.25900
C1228       C  0.25549798  0.37827735  0.56647440    -0.11800
C1229       C  0.26485919  0.36945662  0.54558832    -0.25700
C1230       C  0.27237995  0.34648492  0.54522370     0.36800
C1231       C  0.25193700  0.32518074  0.60526229     0.06300
F1232       F  0.24361112  0.37358915  0.60609654    -0.19500
H1233       H  0.24991171  0.39599879  0.56728860     0.16200
F1234       F  0.28152119  0.33731861  0.52537267    -0.23200
H1235       H  0.27360884  0.31433587  0.56373073     0.18000
C1236       C  0.22970257  0.32600138  0.61613845     0.26000
C1237       C  0.22534113  0.31365790  0.63689461    -0.11700
C1238       C  0.24294985  0.30008056  0.64710748    -0.25800
C1239       C  0.26448160  0.29768121  0.63504699     0.36900
C1240       C  0.26884080  0.31006109  0.61436920    -0.27400
F1241       F  0.21230339  0.33918850  0.60697657    -0.19500
H1242       H  0.20867719  0.31583456  0.64572730     0.16200
F1243       F  0.28178194  0.28410985  0.64383984    -0.23200
H1244       H  0.28591001  0.30869349  0.60614997     0.18000
C1245       C  0.28015258  0.39516234  0.67707721    -0.27300
C1246       C  0.27457574  0.41514595  0.68942267     0.06300
C1247       C  0.26356875  0.41356781  0.71139847     0.25900
C1248       C  0.25880570  0.39231962  0.72122582    -0.11800
C1249       C  0.26453023  0.37217289  0.70920420    -0.25700
C1250       C  0.27525907  0.37368396  0.68693380     0.36800
C1251       C  0.27859602  0.43797027  0.67933996     0.06300
F1252       F  0.25670248  0.43268972  0.72304650    -0.19500
H1253       H  0.25045248  0.39167547  0.73829399     0.16200
F1254       F  0.28029621  0.35455907  0.67441907    -0.23200
H1255       H  0.28814574  0.39623879  0.65986233     0.18000
C1256       C  0.29135476  0.45408612  0.69236898     0.26000
C1257       C  0.28794751  0.47737580  0.68830830    -0.11700
C1258       C  0.27261901  0.48477540  0.67058596    -0.25800
C1259       C  0.26183550  0.46861822  0.65590790     0.36900
C1260       C  0.26489757  0.44524027  0.66024413    -0.27400
F1261       F  0.30482466  0.44729020  0.71083650    -0.19500
H1262       H  0.29531723  0.48943754  0.70061634     0.16200
F1263       F  0.24659941  0.47547234  0.63892347    -0.23200
H1264       H  0.25477345  0.43296748  0.65023298     0.18000
C1265       C  0.37766446  0.31672819  0.72912440    -0.27300
C1266       C  0.38505204  0.33574836  0.74212957     0.06300
C1267       C  0.37233594  0.34184816  0.76242348     0.25900
C1268       C  0.35190069  0.32989510  0.76870611    -0.11800
C1269       C  0.34370226  0.31189811  0.75469676    -0.25700
C1270       C  0.35721762  0.30496204  0.73524548     0.36800
C1271       C  0.40542431  0.34960250  0.73394093     0.06300
F1272       F  0.37935565  0.35973677  0.77584561    -0.19500
H1273       H  0.34169567  0.33566533  0.78358687     0.16200
F1274       F  0.35000959  0.28740881  0.72143778    -0.23200
H1275       H  0.38713780  0.31162138  0.71351979     0.18000
C1276       C  0.42720400  0.33928736  0.72903546     0.26000
C1277       C  0.44669517  0.35280190  0.72319818    -0.11700
C1278       C  0.44483073  0.37679438  0.72199135    -0.25800
C1279       C  0.42270104  0.38694027  0.72540409     0.36900
C1280       C  0.40321926  0.37344967  0.73123353    -0.27400
F1281       F  0.43005892  0.31631734  0.73151865    -0.19500
H1282       H  0.46368163  0.34465023  0.72140428     0.16200
F1283       F  0.42029031  0.41005856  0.72458764    -0.23200
H1284       H  0.38649527  0.38172472  0.73434113     0.18000
C1285       C  0.13404687  0.15034383  0.98716098    -0.27300
C1286       C  0.12073316  0.15424835  0.00741088     0.06300
C1287       C  0.12997737  0.16851713  0.02489969     0.25900
C1288       C  0.15265212  0.17761725  0.02271674    -0.11800
C1289       C  0.16703777  0.17228719  0.00331440    -0.25700
C1290       C  0.15688212  0.15900219  0.98508217     0.36800
C1291       C  0.09845839  0.14145367  0.01113672     0.06300
F1292       F  0.11729492  0.17310240  0.04448257    -0.19500
H1293       H  0.15911001  0.18803483  0.03688150     0.16200
F1294       F  0.16941369  0.15256366  0.96599909    -0.23200
H1295       H  0.12729891  0.13927275  0.97349788     0.18000
C1296       C  0.07985459  0.14284439  0.99489548     0.26000
C1297       C  0.06004399  0.12879207  0.99740657    -0.11700
C1298       C  0.05885696  0.11256277  0.01562795    -0.25800
C1299       C  0.07716488  0.11158045  0.03222686     0.36900
C1300       C  0.09661412  0.12609991  0.03012032    -0.27400
F1301       F  0.08121026  0.15723127  0.97617536    -0.19500
H1302       H  0.04634108  0.12951228  0.98420268     0.16200
F1303       F  0.07660931  0.09599968  0.04999593    -0.23200
H1304       H  0.11084295  0.12454120  0.04267518     0.18000
C1305       C  0.20370085  0.22286760  0.94248958    -0.27300
C1306       C  0.21627194  0.21397104  0.92334037     0.06300
C1307       C  0.22186293  0.19049377  0.92327020     0.25900
C1308       C  0.21664936  0.17678203  0.94277922    -0.11800
C1309       C  0.20556066  0.18608428  0.96263018    -0.25700
C1310       C  0.19811121  0.20904319  0.96182699     0.36800
C1311       C  0.22322642  0.22917214  0.90348139     0.06300
F1312       F  0.23265683  0.18086520  0.90450078    -0.19500
H1313       H  0.22230123  0.15905836  0.94286605     0.16200
F1314       F  0.18707507  0.21868305  0.98040476    -0.23200
H1315       H  0.19899259  0.24083577  0.94291519     0.18000
C1316       C  0.20658461  0.24357946  0.89280577     0.26000
C1317       C  0.21254157  0.25638124  0.87297225    -0.11700
C1318       C  0.23516564  0.25512219  0.86309327    -0.25800
C1319       C  0.25237157  0.24205582  0.87473757     0.36900
C1320       C  0.24636660  0.22909301  0.89471754    -0.27400
F1321       F  0.18405456  0.24408248  0.90050503    -0.19500
H1322       H  0.19887422  0.26624717  0.86435369     0.16200
F1323       F  0.27439631  0.24045295  0.86587741    -0.23200
H1324       H  0.25964783  0.21850598  0.90300621     0.18000
C1325       C  0.64435233  0.74233328  0.36486482    -0.27300
C1326       C  0.65608435  0.74662783  0.38607905     0.06300
C1327       C  0.67918435  0.75505338  0.38544359     0.25900
C1328       C  0.68989498  0.76006460  0.36398465    -0.11800
C1329       C  0.67788687  0.75667358  0.34271183    -0.25700
C1330       C  0.65511682  0.74714895  0.34333805     0.36800
C1331       C  0.64340511  0.74513943  0.40873150     0.06300
F1332       F  0.69090531  0.75978859  0.40562106    -0.19500
H1333       H  0.70748557  0.76707979  0.36407145     0.16200
F1334       F  0.64275883  0.74345832  0.32328998    -0.23200
H1335       H  0.62653435  0.73587950  0.36501800     0.18000
C1336       C  0.62340919  0.75875411  0.41240778     0.26000
C1337       C  0.61438499  0.76141002  0.43501457    -0.11700
C1338       C  0.62486969  0.75031894  0.45428691    -0.25800
C1339       C  0.64344645  0.73492866  0.45028852     0.36900
C1340       C  0.65277843  0.73257299  0.42765691    -0.27400
F1341       F  0.61394159  0.77118608  0.39454627    -0.19500
H1342       H  0.60009428  0.77335655  0.43772662     0.16200
F1343       F  0.65406071  0.72394240  0.46848217    -0.23200
H1344       H  0.66809492  0.72187171  0.42510047     0.18000
C1345       C  0.53685500  0.76227534  0.31073701    -0.27300
C1346       C  0.55884344  0.77099812  0.31730445     0.06300
C1347       C  0.56420416  0.77304912  0.34132782     0.25900
C1348       C  0.54738205  0.76761330  0.35835187    -0.11800
C1349       C  0.52486003  0.76007000  0.35179964    -0.25700
C1350       C  0.51998309  0.75690352  0.32774330     0.36800
C1351       C  0.57642548  0.77738905  0.29920970     0.06300
F1352       F  0.58563817  0.78059095  0.34830559    -0.19500
H1353       H  0.55147564  0.77051232  0.37669114     0.16200
F1354       F  0.49835551  0.75025885  0.32051190    -0.23200
H1355       H  0.53242084  0.76044265  0.29233199     0.18000
C1356       C  0.58382664  0.76123854  0.28260285     0.26000
C1357       C  0.60317340  0.76584230  0.26834864    -0.11700
C1358       C  0.61549050  0.78664430  0.27027128    -0.25800
C1359       C  0.60662386  0.80373153  0.28517511     0.36900
C1360       C  0.58729417  0.79902967  0.29962569    -0.27400
F1361       F  0.57370579  0.74022818  0.28159981    -0.19500
H1362       H  0.60959286  0.75240850  0.25695427     0.16200
F1363       F  0.61794101  0.82404912  0.28750470    -0.23200
H1364       H  0.58150869  0.81189147  0.31199682     0.18000
C1365       C  0.68884053  0.61492687  0.32385791    -0.27300
C1366       C  0.70973583  0.62629177  0.32989194     0.06300
C1367       C  0.72579314  0.61532809  0.34488152     0.25900
C1368       C  0.72183384  0.59273051  0.35211734    -0.11800
C1369       C  0.70209240  0.58047576  0.34413875    -0.25700
C1370       C  0.68510400  0.59209182  0.33069385     0.36800
C1371       C  0.71536846  0.64872975  0.31894926     0.06300
F1372       F  0.74589333  0.62602624  0.35144933    -0.19500
H1373       H  0.73528007  0.58407808  0.36230945     0.16200
F1374       F  0.66638338  0.58067232  0.32181167    -0.23200
H1375       H  0.67623255  0.62318967  0.31234728     0.18000
C1376       C  0.73389069  0.65089963  0.30270014     0.26000
C1377       C  0.73758690  0.67165786  0.29067216    -0.11700
C1378       C  0.72276112  0.69045916  0.29458957    -0.25800
C1379       C  0.70486912  0.68841156  0.31165579     0.36900
C1380       C  0.70118853  0.66774162  0.32351349    -0.27400
F1381       F  0.74759178  0.63257594  0.29756461    -0.19500
H1382       H  0.75132157  0.67270811  0.27759166     0.16200
F1383       F  0.69064235  0.70637936  0.31674371    -0.23200
H1384       H  0.68697460  0.66644973  0.33605915     0.18000
C1385       C  0.74744384  0.33967898  0.39212931    -0.27300
C1386       C  0.72462730  0.34340072  0.40091357     0.06300
C1387       C  0.70548696  0.33441678  0.38856141     0.25900
C1388       C  0.70900766  0.32188050  0.36813576    -0.11800
C1389       C  0.73166158  0.31852836  0.35873525    -0.25700
C1390       C  0.75100499  0.32734701  0.37119982     0.36800
C1391       C  0.72056111  0.35697102  0.42260994     0.06300
F1392       F  0.68316294  0.33876576  0.39555508    -0.19500
H1393       H  0.69358266  0.31553649  0.35912802     0.16200
F1394       F  0.77312073  0.32497897  0.36274720    -0.23200
H1395       H  0.76248101  0.34656166  0.40136782     0.18000
C1396       C  0.70662800  0.34827339  0.44103883     0.26000
C1397       C  0.70321139  0.36102982  0.46154848    -0.11700
C1398       C  0.71367496  0.38261816  0.46413334    -0.25800
C1399       C  0.72662426  0.39177978  0.44523585     0.36900
C1400       C  0.73012222  0.37899827  0.42477909    -0.27400
F1401       F  0.69727323  0.32694327  0.43970283    -0.19500
H1402       H  0.69354469  0.35343120  0.47596885     0.16200
F1403       F  0.73638558  0.41292169  0.44678619    -0.23200
H1404       H  0.74041270  0.38627181  0.41062237     0.18000
C1405       C  0.67373392  0.46807702  0.30732586    -0.27300
C1406       C  0.68221030  0.45063650  0.32213726     0.06300
C1407       C  0.68960446  0.45626569  0.34496329     0.25900
C1408       C  0.69027844  0.47921383  0.35205923    -0.11800
C1409       C  0.68374309  0.49680831  0.33648594    -0.25700
C1410       C  0.67452730  0.49099006  0.31438741     0.36800
C1411       C  0.68742770  0.42772911  0.31226108     0.06300
F1412       F  0.69885957  0.43994684  0.35928959    -0.19500
H1413       H  0.69836938  0.48341302  0.36872955     0.16200
F1414       F  0.66923010  0.50764185  0.29851600    -0.23200
H1415       H  0.66826641  0.46409436  0.28957090     0.18000
C1416       C  0.67753361  0.40759896  0.32148394     0.26000
C1417       C  0.68385598  0.38614701  0.31232363    -0.11700
C1418       C  0.70035873  0.38440282  0.29396329    -0.25800
C1419       C  0.71019095  0.40481195  0.28489095     0.36900
C1420       C  0.70366031  0.42608131  0.29389878    -0.27400
F1421       F  0.66164360  0.40873893  0.33916488    -0.19500
H1422       H  0.67592841  0.37090276  0.31973254     0.16200
F1423       F  0.72623678  0.40443384  0.26730489    -0.23200
H1424       H  0.71169395  0.44141574  0.28676760     0.18000
C1425       C  0.54112179  0.34857170  0.27857204    -0.27300
C1426       C  0.55954234  0.35729478  0.26465055     0.06300
C1427       C  0.55706034  0.37939780  0.25498253     0.25900
C1428       C  0.53650487  0.39201743  0.25858819    -0.11800
C1429       C  0.51782684  0.38301541  0.27183364    -0.25700
C1430       C  0.52048554  0.36126864  0.28217172     0.36800
C1431       C  0.58141594  0.34361859  0.26064969     0.06300
F1432       F  0.57449539  0.38888037  0.24198336    -0.19500
H1433       H  0.53485490  0.40869794  0.25033997     0.16200
F1434       F  0.50253258  0.35158598  0.29427952    -0.23200
H1435       H  0.54235853  0.33152560  0.28603267     0.18000
C1436       C  0.59295974  0.33291378  0.27956485     0.26000
C1437       C  0.61436638  0.32171112  0.27617944    -0.11700
C1438       C  0.62510412  0.32084428  0.25390804    -0.25800
C1439       C  0.61308894  0.33064592  0.23468543     0.36900
C1440       C  0.59148755  0.34188336  0.23808995    -0.27400
F1441       F  0.58424984  0.33430840  0.30168360    -0.19500
H1442       H  0.62293752  0.31422144  0.29137643     0.16200
F1443       F  0.62262226  0.33035840  0.21286286    -0.23200
H1444       H  0.58278086  0.34957571  0.22308423     0.18000
C1445       C  0.25247223  0.67773919  0.42114448    -0.27300
C1446       C  0.26322992  0.69932406  0.41957204     0.06300
C1447       C  0.27270317  0.70927320  0.43992938     0.25900
C1448       C  0.26967335  0.69867668  0.46176606    -0.11800
C1449       C  0.25686837  0.67824643  0.46357582    -0.25700
C1450       C  0.24920696  0.66727767  0.44303377     0.36800
C1451       C  0.26176041  0.71258211  0.39742222     0.06300
F1452       F  0.28371205  0.72985601  0.43880964    -0.19500
H1453       H  0.27560352  0.70740606  0.47745007     0.16200
F1454       F  0.23732848  0.64717046  0.44433089    -0.23200
H1455       H  0.24514998  0.66975649  0.40563158     0.18000
C1456       C  0.27007895  0.70360156  0.37618732     0.26000
C1457       C  0.26665783  0.71565375  0.35516764    -0.11700
C1458       C  0.25485413  0.73687802  0.35494605    -0.25800
C1459       C  0.24719510  0.74613014  0.37644566     0.36900
C1460       C  0.25054188  0.73399474  0.39737200    -0.27400
F1461       F  0.28154206  0.68321876  0.37581078    -0.19500
H1462       H  0.27285567  0.70809050  0.33898278     0.16200
F1463       F  0.23642199  0.76686086  0.37736421    -0.23200
H1464       H  0.24388035  0.74112901  0.41358655     0.18000
C1465       C  0.26440331  0.59610477  0.30327174    -0.27300
C1466       C  0.25002398  0.61348840  0.31257470     0.06300
C1467       C  0.24136607  0.61080212  0.33557981     0.25900
C1468       C  0.24554265  0.59056928  0.34813653    -0.11800
C1469       C  0.25873004  0.57274617  0.33828173    -0.25700
C1470       C  0.26895393  0.57601783  0.31607027     0.36800
C1471       C  0.24410947  0.63427090  0.29834504     0.06300
F1472       F  0.22851493  0.62756777  0.34585050    -0.19500
H1473       H  0.23755516  0.58836471  0.36524813     0.16200
F1474       F  0.28160583  0.55905015  0.30586735    -0.23200
H1475       H  0.27129248  0.59758535  0.28562348     0.18000
C1476       C  0.26163620  0.64593069  0.28577943     0.26000
C1477       C  0.25643354  0.66633567  0.27403875    -0.11700
C1478       C  0.23386778  0.67618600  0.27506055    -0.25800
C1479       C  0.21595898  0.66400731  0.28653914     0.36900
C1480       C  0.22104196  0.64312576  0.29786114    -0.27400
F1481       F  0.28426524  0.63865530  0.28632618    -0.19500
H1482       H  0.27064965  0.67533524  0.26540346     0.16200
F1483       F  0.19411464  0.67307257  0.28845908    -0.23200
H1484       H  0.20705853  0.63425228  0.30696537     0.18000
C1485       C  0.40504811  0.78217785  0.35251485    -0.27300
C1486       C  0.40179999  0.76939703  0.33194945     0.06300
C1487       C  0.41955346  0.75398541  0.32510497     0.25900
C1488       C  0.44016627  0.75182466  0.33844295    -0.11800
C1489       C  0.44378863  0.76529101  0.35854645    -0.25700
C1490       C  0.42571859  0.78029576  0.36562775     0.36800
C1491       C  0.37984580  0.77253147  0.31800600     0.06300
F1492       F  0.41763571  0.74197706  0.30483289    -0.19500
H1493       H  0.45382537  0.74045304  0.33228746     0.16200
F1494       F  0.42804646  0.79354169  0.38502157    -0.23200
H1495       H  0.39153863  0.79389074  0.35838007     0.18000
C1496       C  0.36627187  0.75364055  0.31115116     0.26000
C1497       C  0.34468587  0.75695576  0.29995608    -0.11700
C1498       C  0.33566731  0.77915931  0.29572912    -0.25800
C1499       C  0.34959907  0.79807259  0.30198037     0.36900
C1500       C  0.37144302  0.79471810  0.31292078    -0.27400
F1501       F  0.37308195  0.73195651  0.31657332    -0.19500
H1502       H  0.33463981  0.74188989  0.29534265     0.16200
F1503       F  0.34183239  0.81978475  0.29842521    -0.23200
H1504       H  0.38164005  0.80956555  0.31794091     0.18000
C1505       C  0.10229254  0.03466340  0.16796539    -0.27300
C1506       C  0.10884589  0.02388478  0.14693676     0.06300
C1507       C  0.13183751  0.01487210  0.14526264     0.25900
C1508       C  0.14765116  0.01680362  0.16413715    -0.11800
C1509       C  0.14093549  0.02774204  0.18496660    -0.25700
C1510       C  0.11798271  0.03643281  0.18674438     0.36800
C1511       C  0.09188162  0.02320154  0.12677833     0.06300
F1512       F  0.13903237  0.00399885  0.12552452    -0.19500
H1513       H  0.16524348  0.01007161  0.16234398     0.16200
F1514       F  0.11059994  0.04650409  0.20686017    -0.23200
H1515       H  0.08505230  0.04224078  0.16978908     0.18000
C1516       C  0.06779572  0.01875996  0.13034265     0.26000
C1517       C  0.05176580  0.02035366  0.11169242    -0.11700
C1518       C  0.05922066  0.02591663  0.08882895    -0.25800
C1519       C  0.08349452  0.02947519  0.08510486     0.36900
C1520       C  0.09941940  0.02838169  0.10387725    -0.27400
F1521       F  0.05964903  0.01256685  0.15183212    -0.19500
H1522       H  0.03340545  0.01710020  0.11524384     0.16200
F1523       F  0.09204579  0.03433182  0.06341475    -0.23200
H1524       H  0.11768043  0.03223796  0.10049091     0.18000
C1525       C  0.21549429  0.92299634  0.24401104    -0.27300
C1526       C  0.21114507  0.92763448  0.22012929     0.06300
C1527       C  0.21982101  0.91258500  0.20308144     0.25900
C1528       C  0.23078692  0.89220201  0.20995744    -0.11800
C1529       C  0.23355713  0.88672885  0.23386515    -0.25700
C1530       C  0.22673537  0.90270846  0.25087751     0.36800
C1531       C  0.19694872  0.94784544  0.21337036     0.06300
F1532       F  0.21591761  0.91664708  0.17991533    -0.19500
H1533       H  0.23536513  0.87976380  0.19664397     0.16200
F1534       F  0.22875000  0.89763959  0.27408969    -0.23200
H1535       H  0.20926580  0.93467100  0.25737083     0.18000
C1536       C  0.17413185  0.95070678  0.22228563     0.26000
C1537       C  0.16275455  0.97184896  0.22008791    -0.11700
C1538       C  0.17387036  0.99019428  0.20872751    -0.25800
C1539       C  0.19546294  0.98645856  0.19746581     0.36900
C1540       C  0.20692056  0.96537152  0.19978458    -0.27400
F1541       F  0.16352896  0.93352077  0.23437968    -0.19500
H1542       H  0.14629742  0.97454376  0.22916827     0.16200
F1543       F  0.20679999  0.00408701  0.18680538    -0.23200
H1544       H  0.22438257  0.96336509  0.19259143     0.18000
C1545       C  0.25394334  0.31582548  0.39464077    -0.27300
C1546       C  0.24082017  0.33458792  0.40258058     0.06300
C1547       C  0.22042058  0.34096336  0.39003443     0.25900
C1548       C  0.21380795  0.32912603  0.36962705    -0.11800
C1549       C  0.22775117  0.31120416  0.36106084    -0.25700
C1550       C  0.24766750  0.30438996  0.37405925     0.36800
C1551       C  0.24911318  0.34779390  0.42336620     0.06300
F1552       F  0.20728333  0.35907019  0.39707085    -0.19500
H1553       H  0.19878463  0.33504795  0.35961228     0.16200
F1554       F  0.26188329  0.28744564  0.36607866    -0.23200
H1555       H  0.26981996  0.31071731  0.40375694     0.18000
C1556       C  0.25506786  0.33658885  0.44451506     0.26000
C1557       C  0.26194303  0.34924636  0.46421031    -0.11700
C1558       C  0.26307438  0.37327204  0.46325479    -0.25800
C1559       C  0.25837711  0.38438912  0.44182121     0.36900
C1560       C  0.25149147  0.37175027  0.42207972    -0.27400
F1561       F  0.25290088  0.31351163  0.44657700    -0.19500
H1562       H  0.26487362  0.34035533  0.48068474     0.16200
F1563       F  0.25959304  0.40755652  0.44028114    -0.23200
H1564       H  0.24767874  0.38072642  0.40582847     0.18000
C1565       C  0.36854356  0.33174429  0.24864137    -0.27300
C1566       C  0.36897817  0.35067453  0.26401428     0.06300
C1567       C  0.34765395  0.35841589  0.27346327     0.25900
C1568       C  0.32667932  0.34719352  0.26824842    -0.11800
C1569       C  0.32617539  0.32791627  0.25346887    -0.25700
C1570       C  0.34729000  0.32048746  0.24330371     0.36800
C1571       C  0.39131156  0.36284384  0.26989853     0.06300
F1572       F  0.34717046  0.37636385  0.28855398    -0.19500
H1573       H  0.31067537  0.35331253  0.27633285     0.16200
F1574       F  0.34754157  0.30178157  0.22924493    -0.23200
H1575       H  0.38468255  0.32563769  0.24084124     0.18000
C1576       C  0.41136831  0.35105711  0.27803533     0.26000
C1577       C  0.43232041  0.36299869  0.28271218    -0.11700
C1578       C  0.43370059  0.38684985  0.27921029    -0.25800
C1579       C  0.41329666  0.39864027  0.27218264     0.36900
C1580       C  0.39247731  0.38678941  0.26757597    -0.27400
F1581       F  0.41087145  0.32797526  0.28094262    -0.19500
H1582       H  0.44792633  0.35339903  0.28740836     0.16200
F1583       F  0.41409742  0.42150038  0.26780813    -0.23200
H1584       H  0.37743262  0.39631255  0.26117540     0.18000
C1585       C  0.28096736  0.40455768  0.31989481    -0.27300
C1586       C  0.26818845  0.42418815  0.31352888     0.06300
C1587       C  0.24984445  0.42214868  0.29709424     0.25900
C1588       C  0.24448660  0.40097484  0.28722371    -0.11800
C1589       C  0.25704839  0.38118189  0.29363080    -0.25700
C1590       C  0.27552121  0.38322289  0.31009110     0.36800
C1591       C  0.27314533  0.44674241  0.32439634     0.06300
F1592       F  0.23642090  0.44052960  0.29120320    -0.19500
H1593       H  0.23003875  0.40007526  0.27487531     0.16200
F1594       F  0.28830909  0.36470222  0.31685311    -0.23200
H1595       H  0.29518734  0.40576001  0.33247779     0.18000
C1596       C  0.27269301  0.44955879  0.34895103     0.26000
C1597       C  0.27194019  0.47161657  0.35861087    -0.11700
C1598       C  0.27212133  0.49100862  0.34395141    -0.25800
C1599       C  0.27439477  0.48811606  0.31959121     0.36900
C1600       C  0.27516704  0.46619586  0.30997977    -0.27400
F1601       F  0.27077242  0.43112312  0.36342618    -0.19500
H1602       H  0.26957368  0.47355625  0.37737106     0.16200
F1603       F  0.27319982  0.50644806  0.30488784    -0.23200
H1604       H  0.27570080  0.46441653  0.29105481     0.18000
C1605       C  0.20423992  0.21984914  0.06829031    -0.27300
C1606       C  0.21305361  0.20850265  0.08827184     0.06300
C1607       C  0.21640419  0.18458455  0.08724636     0.25900
C1608       C  0.21172843  0.17257424  0.06658090    -0.11800
C1609       C  0.20393614  0.18402776  0.04631583    -0.25700
C1610       C  0.19992054  0.20782260  0.04744876     0.36800
C1611       C  0.21827162  0.22131386  0.11031224     0.06300
F1612       F  0.22553376  0.17292263  0.10580704    -0.19500
H1613       H  0.21551428  0.15439494  0.06597605     0.16200
F1614       F  0.19301593  0.21967231  0.02810066    -0.23200
H1615       H  0.20104198  0.23812925  0.06868586     0.18000
C1616       C  0.23106513  0.24207452  0.11042688     0.26000
C1617       C  0.23565531  0.25351755  0.13171006    -0.11700
C1618       C  0.22741024  0.24448448  0.15304082    -0.25800
C1619       C  0.21504235  0.22360506  0.15277678     0.36900
C1620       C  0.21041753  0.21237880  0.13176678    -0.27400
F1621       F  0.23920631  0.25122637  0.09006911    -0.19500
H1622       H  0.24492402  0.26970156  0.13144555     0.16200
F1623       F  0.20707057  0.21407513  0.17301954    -0.23200
H1624       H  0.20023485  0.19673058  0.13230029     0.18000
C1625       C  0.15936518  0.16339204  0.20407181    -0.27300
C1626       C  0.17266013  0.14359395  0.20812081     0.06300
C1627       C  0.19528879  0.14550699  0.21770407     0.25900
C1628       C  0.20411635  0.16687389  0.22409268    -0.11800
C1629       C  0.19071572  0.18682742  0.22066447    -0.25700
C1630       C  0.16840535  0.18493043  0.20991858     0.36800
C1631       C  0.16249669  0.12062687  0.20488378     0.06300
F1632       F  0.20846174  0.12650805  0.22181681    -0.19500
H1633       H  0.22140182  0.16773477  0.23198272     0.16200
F1634       F  0.15494783  0.20371450  0.20574409    -0.23200
H1635       H  0.14185937  0.16210555  0.19674968     0.18000
C1636       C  0.14702768  0.11195312  0.22188623     0.26000
C1637       C  0.14397697  0.08832704  0.22418658    -0.11700
C1638       C  0.15580585  0.07324297  0.20918853    -0.25800
C1639       C  0.16879618  0.08207616  0.19027737     0.36900
C1640       C  0.17230763  0.10571170  0.18831300    -0.27400
F1641       F  0.13718801  0.12607590  0.23799961    -0.19500
H1642       H  0.13405718  0.08171570  0.23894159     0.16200
F1643       F  0.18060663  0.06782162  0.17568266    -0.23200
H1644       H  0.18433762  0.11220644  0.17517369     0.18000
C1645       C  0.99649254  0.13584844  0.17210889    -0.27300
C1646       C  0.97888134  0.14112126  0.15567657     0.06300
C1647       C  0.96203148  0.15774687  0.16186493     0.25900
C1648       C  0.96252082  0.16811102  0.18427373    -0.11800
C1649       C  0.97972538  0.16214125  0.20113391    -0.25700
C1650       C  0.99692267  0.14592048  0.19440527     0.36800
C1651       C  0.97721164  0.12715879  0.13356639     0.06300
F1652       F  0.94422896  0.16291536  0.14688641    -0.19500
H1653       H  0.94891782  0.18025916  0.18864649     0.16200
F1654       F  0.01327292  0.13825900  0.20990083    -0.23200
H1655       H  0.00958861  0.12302627  0.16796993     0.18000
C1656       C  0.97702663  0.13695138  0.11086853     0.26000
C1657       C  0.97694585  0.12288417  0.09067181    -0.11700
C1658       C  0.97720196  0.09871675  0.09257248    -0.25800
C1659       C  0.97728230  0.08917699  0.11547034     0.36900
C1660       C  0.97717800  0.10317279  0.13540157    -0.27400
F1661       F  0.97796757  0.16004077  0.10817745    -0.19500
H1662       H  0.97713483  0.13096858  0.07352483     0.16200
F1663       F  0.97795959  0.06617410  0.11892468    -0.23200
H1664       H  0.97735591  0.09510958  0.15257374     0.18000
C1665       C  0.87053828  0.23223160  0.26300037    -0.27300
C1666       C  0.87104516  0.21469763  0.24606077     0.06300
C1667       C  0.85061123  0.21006196  0.23317844     0.25900
C1668       C  0.83036034  0.22313589  0.23669371    -0.11800
C1669       C  0.82981509  0.24100376  0.25332135    -0.25700
C1670       C  0.85006186  0.24522057  0.26673769     0.36800
C1671       C  0.89296655  0.20160001  0.24147733     0.06300
F1672       F  0.85050060  0.19344868  0.21654503    -0.19500
H1673       H  0.81501284  0.21939718  0.22612008     0.16200
F1674       F  0.85042432  0.26251651  0.28256611    -0.23200
H1675       H  0.88612758  0.23598243  0.27318806     0.18000
C1676       C  0.91342995  0.21283862  0.23390673     0.26000
C1677       C  0.93431674  0.20053626  0.23063131    -0.11700
C1678       C  0.93525282  0.17685333  0.23511897    -0.25800
C1679       C  0.91460354  0.16554109  0.24211382     0.36900
C1680       C  0.89360454  0.17776121  0.24491331    -0.27400
F1681       F  0.91331395  0.23581976  0.23021522    -0.19500
H1682       H  0.95015543  0.20976335  0.22604310     0.16200
F1683       F  0.91516608  0.14291203  0.24767519    -0.23200
H1684       H  0.87805510  0.16878072  0.25080882     0.18000
C1685       C  0.05818146  0.18850230  0.25363894    -0.27300
C1686       C  0.05784304  0.21083790  0.24439203     0.06300
C1687       C  0.03827357  0.21781307  0.23095019     0.25900
C1688       C  0.01898447  0.20315150  0.22804076    -0.11800
C1689       C  0.01879765  0.18132090  0.23848285    -0.25700
C1690       C  0.03893042  0.17389072  0.25076732     0.36800
C1691       C  0.07823333  0.22637323  0.24835124     0.06300
F1692       F  0.03720055  0.23927515  0.22176747    -0.19500
H1693       H  0.00355580  0.20945828  0.21893465     0.16200
F1694       F  0.03963204  0.15275501  0.26078155    -0.23200
H1695       H  0.07330861  0.18245126  0.26341248     0.18000
C1696       C  0.08786351  0.22968607  0.27094338     0.26000
C1697       C  0.10877797  0.24215821  0.27388523    -0.11700
C1698       C  0.12034295  0.25171869  0.25437800    -0.25800
C1699       C  0.10951120  0.24983293  0.23206818     0.36900
C1700       C  0.08893655  0.23716852  0.22917342    -0.27400
F1701       F  0.07714985  0.22066680  0.29013243    -0.19500
H1702       H  0.11638997  0.24351154  0.29126675     0.16200
F1703       F  0.11913866  0.25965456  0.21270267    -0.23200
H1704       H  0.08183276  0.23509351  0.21165122     0.18000
C1705       C  0.74067431  0.90980906  0.17593216    -0.27300
C1706       C  0.74199157  0.92862139  0.19107638     0.06300
C1707       C  0.73290170  0.92657648  0.21404325     0.25900
C1708       C  0.72389877  0.90562092  0.22196994    -0.11800
C1709       C  0.72389417  0.88654302  0.20714339    -0.25700
C1710       C  0.73198421  0.88887387  0.18395393     0.36800
C1711       C  0.75295199  0.95020273  0.18283186     0.06300
F1712       F  0.73319067  0.94466175  0.22896262    -0.19500
H1713       H  0.71833090  0.90391647  0.24007742     0.16200
F1714       F  0.73287809  0.87041028  0.16955407    -0.23200
H1715       H  0.74746858  0.91101965  0.15821530     0.18000
C1716       C  0.77002138  0.96134375  0.19647721     0.26000
C1717       C  0.77693415  0.98361739  0.19079100    -0.11700
C1718       C  0.76783720  0.99471261  0.17083582    -0.25800
C1719       C  0.75294379  0.98249132  0.15570745     0.36900
C1720       C  0.74546860  0.96043243  0.16174274    -0.27400
F1721       F  0.77895514  0.95122760  0.21606080    -0.19500
H1722       H  0.78750857  0.99298373  0.20331733     0.16200
F1723       F  0.74321219  0.99305054  0.13675923    -0.23200
H1724       H  0.73252586  0.95203296  0.15080828     0.18000
C1725       C  0.79381609  0.10852724  0.19881595    -0.27300
C1726       C  0.78200516  0.12543692  0.18575735     0.06300
C1727       C  0.77108918  0.11942316  0.16448565     0.25900
C1728       C  0.76966846  0.09641868  0.15797816    -0.11800
C1729       C  0.77945767  0.07932554  0.17232884    -0.25700
C1730       C  0.79254596  0.08556661  0.19217622     0.36800
C1731       C  0.77756797  0.14809557  0.19634687     0.06300
F1732       F  0.75947792  0.13535431  0.15147234    -0.19500
H1733       H  0.75900639  0.09175293  0.14296569     0.16200
F1734       F  0.80136626  0.06925337  0.20679155    -0.23200
H1735       H  0.80237968  0.11290150  0.21519874     0.18000
C1736       C  0.76633061  0.14946742  0.21826389     0.26000
C1737       C  0.75995297  0.17066631  0.22744031    -0.11700
C1738       C  0.76472366  0.19098701  0.21507178    -0.25800
C1739       C  0.77671942  0.18963064  0.19341724     0.36900
C1740       C  0.78282744  0.16830924  0.18409852    -0.27400
F1741       F  0.76052787  0.13020469  0.23035966    -0.19500
H1742       H  0.75094660  0.17109578  0.24416897     0.16200
F1743       F  0.78200221  0.20875441  0.18086357    -0.23200
H1744       H  0.79146307  0.16753892  0.16718694     0.18000
C1745       C  0.85872779  0.02645233  0.08225556    -0.27300
C1746       C  0.86231821  0.02905865  0.10649747     0.06300
C1747       C  0.88546878  0.02867623  0.11517645     0.25900
C1748       C  0.90452040  0.02628183  0.09978907    -0.11800
C1749       C  0.90099486  0.02423806  0.07537224    -0.25700
C1750       C  0.87767625  0.02397351  0.06686758     0.36800
C1751       C  0.84176362  0.03175425  0.12245864     0.06300
F1752       F  0.88975212  0.03146274  0.13844864    -0.19500
H1753       H  0.92210331  0.02660719  0.10702748     0.16200
F1754       F  0.87297200  0.02146769  0.04363810    -0.23200
H1755       H  0.84107689  0.02618165  0.07516711     0.18000
C1756       C  0.82388306  0.04768930  0.11738981     0.26000
C1757       C  0.80395082  0.04903061  0.13166056    -0.11700
C1758       C  0.80137486  0.03480090  0.15149473    -0.25800
C1759       C  0.81965009  0.01942932  0.15700227     0.36900
C1760       C  0.83948099  0.01784161  0.14252641    -0.27400
F1761       F  0.82575264  0.06214668  0.09874787    -0.19500
H1762       H  0.79025705  0.06107820  0.12700158     0.16200
F1763       F  0.81888987  0.00644249  0.17669094    -0.23200
H1764       H  0.85299981  0.00547973  0.14688872     0.18000
C1765       C  0.09529859  0.76801528  0.19373288    -0.27300
C1766       C  0.08617948  0.79010218  0.18943118     0.06300
C1767       C  0.09883953  0.80908499  0.19765261     0.25900
C1768       C  0.12017454  0.80608459  0.20940685    -0.11800
C1769       C  0.12967481  0.78407098  0.21347195    -0.25700
C1770       C  0.11671113  0.76496164  0.20574794     0.36800
C1771       C  0.06337427  0.79345419  0.17683062     0.06300
F1772       F  0.09092921  0.83071547  0.19374430    -0.19500
H1773       H  0.12941980  0.82128949  0.21508949     0.16200
F1774       F  0.12475287  0.74337081  0.20950416    -0.23200
H1775       H  0.08569332  0.75305324  0.18797431     0.18000
C1776       C  0.05858002  0.78227314  0.15549164     0.26000
C1777       C  0.03684054  0.78522485  0.14431106    -0.11700
C1778       C  0.01937902  0.79935415  0.15405358    -0.25800
C1779       C  0.02440154  0.81106601  0.17497697     0.36900
C1780       C  0.04611793  0.80807178  0.18620946    -0.27400
F1781       F  0.07481645  0.76838502  0.14547793    -0.19500
H1782       H  0.03330979  0.77581563  0.12832942     0.16200
F1783       F  0.00773182  0.82400344  0.18556644    -0.23200
H1784       H  0.04913731  0.81660327  0.20279372     0.18000
C1785       C  0.91401349  0.80839900  0.19317395    -0.27300
C1786       C  0.89294799  0.80344213  0.18131780     0.06300
C1787       C  0.89285630  0.80418171  0.15656305     0.25900
C1788       C  0.91384146  0.80720449  0.14412938    -0.11800
C1789       C  0.93520073  0.81016532  0.15605362    -0.25700
C1790       C  0.93493653  0.81176083  0.18070857     0.36800
C1791       C  0.87148362  0.79686308  0.19481204     0.06300
F1792       F  0.87261544  0.80120624  0.14435708    -0.19500
H1793       H  0.91368362  0.80561767  0.12517839     0.16200
F1794       F  0.95532169  0.81397630  0.19285878    -0.23200
H1795       H  0.91460120  0.80821760  0.21218763     0.18000
C1796       C  0.85782219  0.77767484  0.18843155     0.26000
C1797       C  0.83688847  0.77263155  0.20034404    -0.11700
C1798       C  0.82923120  0.78650242  0.21886922    -0.25800
C1799       C  0.84360849  0.80476602  0.22619289     0.36900
C1800       C  0.86452720  0.80976375  0.21437436    -0.27400
F1801       F  0.86457620  0.76386837  0.17054955    -0.19500
H1802       H  0.82602129  0.75864136  0.19424604     0.16200
F1803       F  0.83692992  0.81835004  0.24429509    -0.23200
H1804       H  0.87482289  0.82435416  0.21995282     0.18000
C1805       C  0.98114923  0.90281187  0.07698109    -0.27300
C1806       C  0.98293205  0.90411829  0.10155529     0.06300
C1807       C  0.98455971  0.92604318  0.11178178     0.25900
C1808       C  0.98499724  0.94595789  0.09759612    -0.11800
C1809       C  0.98366297  0.94457605  0.07288573    -0.25700
C1810       C  0.98127910  0.92253597  0.06286900     0.36800
C1811       C  0.98361629  0.88229532  0.11571682     0.06300
F1812       F  0.98651391  0.92824238  0.13541462    -0.19500
H1813       H  0.98673169  0.96247709  0.10599631     0.16200
F1814       F  0.97871862  0.91980698  0.03933359    -0.23200
H1815       H  0.97943377  0.88628135  0.06857022     0.18000
C1816       C  0.96822969  0.87806320  0.13463380     0.26000
C1817       C  0.96729679  0.85623567  0.14539597    -0.11700
C1818       C  0.98179380  0.83813871  0.13776158    -0.25800
C1819       C  0.99781246  0.84284872  0.11941523     0.36900
C1820       C  0.99865564  0.86450484  0.10874119    -0.27400
F1821       F  0.95313874  0.89457162  0.14186163    -0.19500
H1822       H  0.95475890  0.85335031  0.15932049     0.16200
F1823       F  0.01164318  0.82611594  0.11045923    -0.23200
H1824       H  0.01070936  0.86717478  0.09429807     0.18000
C1825       C  0.20047740  0.91745332  0.79125695    -0.27300
C1826       C  0.18888835  0.91943063  0.81283190     0.06300
C1827       C  0.17876518  0.89982154  0.82301196     0.25900
C1828       C  0.18169170  0.87834879  0.81242339    -0.11800
C1829       C  0.19473792  0.87616894  0.79153621    -0.25700
C1830       C  0.20330480  0.89621077  0.78061600     0.36800
C1831       C  0.18917190  0.94188028  0.82486412     0.06300
F1832       F  0.16635792  0.90140836  0.84326594    -0.19500
H1833       H  0.17451212  0.86336062  0.82105970     0.16200
F1834       F  0.21511239  0.89539111  0.75994912    -0.23200
H1835       H  0.20825396  0.93237573  0.78301057     0.18000
C1836       C  0.19984030  0.94424769  0.84705558     0.26000
C1837       C  0.20441726  0.96610098  0.85610363    -0.11700
C1838       C  0.19854718  0.98576794  0.84310233    -0.25800
C1839       C  0.18765864  0.98335633  0.82112704     0.36900
C1840       C  0.18265369  0.96163583  0.81231605    -0.27400
F1841       F  0.20792028  0.92556548  0.85884586    -0.19500
H1842       H  0.21389381  0.96768309  0.87252924     0.16200
F1843       F  0.18414773  0.00192558  0.80711494    -0.23200
H1844       H  0.17511968  0.96018997  0.79489974     0.18000
C1845       C  0.18592895  0.10033653  0.82684593    -0.27300
C1846       C  0.20298520  0.11605347  0.83427976     0.06300
C1847       C  0.22033114  0.10895999  0.85025072     0.25900
C1848       C  0.22203857  0.08592853  0.85671366    -0.11800
C1849       C  0.20622452  0.06975358  0.84772242    -0.25700
C1850       C  0.18731828  0.07732935  0.83372217     0.36800
C1851       C  0.20507907  0.13857430  0.82262509     0.06300
F1852       F  0.23690010  0.12388808  0.85787020    -0.19500
H1853       H  0.23657022  0.08046832  0.86768491     0.16200
F1854       F  0.17158445  0.06226838  0.82475420    -0.23200
H1855       H  0.17237000  0.10563717  0.81460969     0.18000
C1856       C  0.21121377  0.13965071  0.79875692     0.26000
C1857       C  0.21602379  0.16071233  0.78815693    -0.11700
C1858       C  0.21450912  0.18109152  0.80106684    -0.25800
C1859       C  0.20803379  0.18004279  0.82492963     0.36900
C1860       C  0.20350808  0.15887178  0.83561595    -0.27400
F1861       F  0.21359956  0.12020314  0.78597584    -0.19500
H1862       H  0.22107859  0.16107905  0.76982350     0.16200
F1863       F  0.20721032  0.19930030  0.83819841    -0.23200
H1864       H  0.19924239  0.15823796  0.85414086     0.18000
C1865       C  0.15376221  0.04272565  0.89961950    -0.27300
C1866       C  0.13258087  0.03412399  0.89068091     0.06300
C1867       C  0.13252070  0.02377010  0.86835412     0.25900
C1868       C  0.15350222  0.02158910  0.85565861    -0.11800
C1869       C  0.17468750  0.02982974  0.86498688    -0.25700
C1870       C  0.17457869  0.04039566  0.88711038     0.36800
C1871       C  0.11117979  0.03519739  0.90550732     0.06300
F1872       F  0.11239764  0.01519018  0.85914373    -0.19500
H1873       H  0.15315664  0.01362631  0.83856379     0.16200
F1874       F  0.19484681  0.04797838  0.89691163    -0.23200
H1875       H  0.15425555  0.05106255  0.91657639     0.18000
C1876       C  0.11227240  0.02820570  0.92914814     0.26000
C1877       C  0.09269308  0.03014843  0.94360293    -0.11700
C1878       C  0.07137700  0.03893375  0.93494917    -0.25800
C1879       C  0.07011198  0.04574428  0.91117711     0.36900
C1880       C  0.08989858  0.04388706  0.89663678    -0.27400
F1881       F  0.13223546  0.01903694  0.93825784    -0.19500
H1882       H  0.09418843  0.02429465  0.96162448     0.16200
F1883       F  0.05001905  0.05464375  0.90210373    -0.23200
H1884       H  0.08872928  0.04965635  0.87857000     0.18000
C1885       C  0.88986954  0.88541851  0.78340365    -0.27300
C1886       C  0.88656854  0.86601127  0.79758587     0.06300
C1887       C  0.90565161  0.85726283  0.81051846     0.25900
C1888       C  0.92823286  0.86614080  0.80703372    -0.11800
C1889       C  0.93191231  0.88371973  0.79053713    -0.25700
C1890       C  0.91236745  0.89424218  0.77988462     0.36800
C1891       C  0.86474183  0.85257088  0.79488240     0.06300
F1892       F  0.90266479  0.83906130  0.82511704    -0.19500
H1893       H  0.94303321  0.85781380  0.81546057     0.16200
F1894       F  0.91531615  0.91171932  0.76437695    -0.23200
H1895       H  0.87535744  0.89246018  0.77338321     0.18000
C1896       C  0.84263217  0.86208910  0.79961583     0.26000
C1897       C  0.82218362  0.85005530  0.79378006    -0.11700
C1898       C  0.82345849  0.82858935  0.78257430    -0.25800
C1899       C  0.84571914  0.81903272  0.77818204     0.36900
C1900       C  0.86605609  0.83086526  0.78447243    -0.27400
F1901       F  0.84085833  0.88315389  0.80946350    -0.19500
H1902       H  0.80533914  0.85792010  0.79732256     0.16200
F1903       F  0.84795005  0.79839775  0.76750655    -0.23200
H1904       H  0.88297616  0.82346680  0.78028027     0.18000
C1905       C  0.03807023  0.83745380  0.78295848    -0.27300
C1906       C  0.05742992  0.84718087  0.77147763     0.06300
C1907       C  0.05623552  0.87014983  0.76399386     0.25900
C1908       C  0.03569879  0.88286064  0.76739795    -0.11800
C1909       C  0.01611381  0.87289746  0.77829853    -0.25700
C1910       C  0.01746270  0.85003160  0.78600522     0.36800
C1911       C  0.07850557  0.83306928  0.76686538     0.06300
F1912       F  0.07470827  0.88009785  0.75292422    -0.19500
H1913       H  0.03459960  0.90010893  0.76038762     0.16200
F1914       F  0.99812751  0.83914598  0.79431990    -0.23200
H1915       H  0.03846126  0.81965504  0.78839650     0.18000
C1916       C  0.08957556  0.82122264  0.78528546     0.26000
C1917       C  0.11028068  0.80920189  0.78118880    -0.11700
C1918       C  0.12041944  0.80863386  0.75864964    -0.25800
C1919       C  0.10849357  0.81922346  0.73986896     0.36900
C1920       C  0.08776017  0.83145709  0.74404375    -0.27400
F1921       F  0.08105413  0.82223510  0.80751255    -0.19500
H1922       H  0.11889915  0.80101789  0.79598642     0.16200
F1923       F  0.11745421  0.81887735  0.71780614    -0.23200
H1924       H  0.07910140  0.84002139  0.72950592     0.18000
C1925       C  0.99562153  0.90005619  0.85388694    -0.27300
C1926       C  0.98743559  0.92270960  0.85601155     0.06300
C1927       C  0.97546835  0.93265755  0.83689831     0.25900
C1928       C  0.97174665  0.92024004  0.81630483    -0.11800
C1929       C  0.97999132  0.89766382  0.81398273    -0.25700
C1930       C  0.99215862  0.88767315  0.83300419     0.36800
C1931       C  0.99141429  0.93619056  0.87787630     0.06300
F1932       F  0.96704765  0.95437242  0.83822121    -0.19500
H1933       H  0.96254629  0.92839683  0.80185927     0.16200
F1934       F  0.00047483  0.86600080  0.83167609    -0.23200
H1935       H  0.00502723  0.89207303  0.86830329     0.18000
C1936       C  0.98419567  0.92798487  0.89999303     0.26000
C1937       C  0.98592893  0.94196587  0.91994933    -0.11700
C1938       C  0.99485972  0.96441075  0.91829208    -0.25800
C1939       C  0.00316603  0.97210030  0.89631047     0.36900
C1940       C  0.00139267  0.95814674  0.87644117    -0.27400
F1941       F  0.97433217  0.90692922  0.90211833    -0.19500
H1942       H  0.97940505  0.93550677  0.93655597     0.16200
F1943       F  0.01297337  0.99315998  0.89390211    -0.23200
H1944       H  0.00756700  0.96465954  0.85971840     0.18000
C1945       C  0.88104179  0.26088937  0.76350975    -0.27300
C1946       C  0.88547625  0.24066703  0.77638061     0.06300
C1947       C  0.86827158  0.22351538  0.77683631     0.25900
C1948       C  0.84633370  0.22742834  0.76646265    -0.11800
C1949       C  0.84118515  0.24832677  0.75506239    -0.25700
C1950       C  0.85916309  0.26461517  0.75265135     0.36800
C1951       C  0.90660226  0.23885199  0.79167772     0.06300
F1952       F  0.87191285  0.20383158  0.78909335    -0.19500
H1953       H  0.83270859  0.21467376  0.76873164     0.16200
F1954       F  0.85492032  0.28492987  0.74178157    -0.23200
H1955       H  0.89417869  0.27427336  0.76285496     0.18000
C1956       C  0.92368995  0.22171936  0.78846395     0.26000
C1957       C  0.94407208  0.22140989  0.80243389    -0.11700
C1958       C  0.94766742  0.23814510  0.81978621    -0.25800
C1959       C  0.92974432  0.25422276  0.82398062     0.36900
C1960       C  0.90954489  0.25459550  0.80999522    -0.27400
F1961       F  0.92138578  0.20625159  0.77088259    -0.19500
H1962       H  0.95780389  0.20917946  0.79849174     0.16200
F1963       F  0.93244735  0.27050730  0.84072262    -0.23200
H1964       H  0.89634851  0.26760013  0.81310719     0.18000
C1965       C  0.05059799  0.22148600  0.78081125    -0.27300
C1966       C  0.07237443  0.22447952  0.79186566     0.06300
C1967       C  0.07312977  0.22668015  0.81651095     0.25900
C1968       C  0.05226208  0.22859429  0.82938312    -0.11800
C1969       C  0.03047769  0.22720629  0.81801374    -0.25700
C1970       C  0.02981644  0.22230253  0.79384512     0.36800
C1971       C  0.09391253  0.22770210  0.77757697     0.06300
F1972       F  0.09397085  0.22887198  0.82786069    -0.19500
H1973       H  0.05309413  0.23265198  0.84791480     0.16200
F1974       F  0.00893116  0.22069070  0.78245870    -0.23200
H1975       H  0.04966550  0.21948345  0.76192730     0.18000
C1976       C  0.11317094  0.21296891  0.78026658     0.26000
C1977       C  0.13456485  0.21819173  0.76952257    -0.11700
C1978       C  0.13733266  0.23836125  0.75615831    -0.25800
C1979       C  0.11767858  0.25243699  0.75229512     0.36900
C1980       C  0.09606640  0.24697833  0.76277517    -0.27400
F1981       F  0.11163223  0.19418623  0.79430275    -0.19500
H1982       H  0.14960588  0.20736110  0.77317261     0.16200
F1983       F  0.11997925  0.27262634  0.74062235    -0.23200
H1984       H  0.08143095  0.25867138  0.76068818     0.18000
C1985       C  0.97445464  0.19031204  0.88513157    -0.27300
C1986       C  0.98775719  0.17043915  0.88109131     0.06300
C1987       C  0.00017591  0.16877912  0.85972857     0.25900
C1988       C  0.99955522  0.18674065  0.84318690    -0.11800
C1989       C  0.98652791  0.20676890  0.84739950    -0.25700
C1990       C  0.97389886  0.20827082  0.86868196     0.36800
C1991       C  0.98823651  0.15152299  0.89902959     0.06300
F1992       F  0.01368243  0.15016457  0.85518964    -0.19500
H1993       H  0.00965824  0.18517123  0.82720586     0.16200
F1994       F  0.96195592  0.22761382  0.87424914    -0.23200
H1995       H  0.96451962  0.19203851  0.90122571     0.18000
C1996       C  0.99200982  0.15595192  0.92311210     0.26000
C1997       C  0.99135266  0.13809043  0.93978815    -0.11700
C1998       C  0.98719359  0.11531908  0.93290227    -0.25800
C1999       C  0.98373414  0.11094942  0.90870395     0.36900
C2000       C  0.98420356  0.12879692  0.89216784    -0.27400
F2001       F  0.99691717  0.17749583  0.93050301    -0.19500
H2002       H  0.99444688  0.14207600  0.95809497     0.16200
F2003       F  0.97936169  0.08943904  0.90085708    -0.23200
H2004       H  0.98092255  0.12484031  0.87388641     0.18000
C2005       C  0.78723376  0.96337155  0.78603776    -0.27300
C2006       C  0.79797627  0.94365848  0.77690692     0.06300
C2007       C  0.82229350  0.94407551  0.77245488     0.25900
C2008       C  0.83507151  0.96434299  0.77542213    -0.11800
C2009       C  0.82389560  0.98443900  0.78292456    -0.25700
C2010       C  0.79996466  0.98361288  0.78885637     0.36800
C2011       C  0.78330288  0.92360744  0.77029520     0.06300
F2012       F  0.83348101  0.92523591  0.76417198    -0.19500
H2013       H  0.85334154  0.96480776  0.77021894     0.16200
F2014       F  0.78829508  0.00299334  0.79492426    -0.23200
H2015       H  0.76852312  0.96365410  0.78931467     0.18000
C2016       C  0.76623837  0.91497688  0.78574457     0.26000
C2017       C  0.75232111  0.89639756  0.77919444    -0.11700
C2018       C  0.75521664  0.88568042  0.75725590    -0.25800
C2019       C  0.77188279  0.89463751  0.74153978     0.36900
C2020       C  0.78564131  0.91351204  0.74798967    -0.27400
F2021       F  0.76373779  0.92376924  0.80764150    -0.19500
H2022       H  0.73994306  0.88963244  0.79186478     0.16200
F2023       F  0.77604102  0.88426467  0.72066765    -0.23200
H2024       H  0.79836360  0.92010097  0.73558755     0.18000
C2025       C  0.77011646  0.13390745  0.78027409    -0.27300
C2026       C  0.79300321  0.13283597  0.78938254     0.06300
C2027       C  0.80418385  0.15319072  0.79614099     0.25900
C2028       C  0.79312419  0.17432905  0.79254483    -0.11800
C2029       C  0.77074102  0.17558491  0.78202687    -0.25700
C2030       C  0.75898704  0.15500167  0.77671978     0.36800
C2031       C  0.80561234  0.11063320  0.78986974     0.06300
F2032       F  0.82594800  0.15262651  0.80586561    -0.19500
H2033       H  0.80253840  0.18977239  0.79719186     0.16200
F2034       F  0.73693243  0.15517067  0.76767190    -0.23200
H2035       H  0.76115667  0.11837717  0.77505015     0.18000
C2036       C  0.79565975  0.09130799  0.80075779     0.26000
C2037       C  0.80604085  0.06975081  0.79817190    -0.11700
C2038       C  0.82611866  0.06707978  0.78422837    -0.25800
C2039       C  0.83672801  0.08651958  0.77425782     0.36900
C2040       C  0.82663488  0.10816080  0.77726040    -0.27400
F2041       F  0.77541740  0.09317059  0.81312500    -0.19500
H2042       H  0.79750120  0.05490160  0.80576501     0.16200
F2043       F  0.85632587  0.08442701  0.76091389    -0.23200
H2044       H  0.83451232  0.12282134  0.76863285     0.18000
C2045       C  0.85193140  0.01345046  0.85464732    -0.27300
C2046       C  0.87253370  0.02660415  0.85636810     0.06300
C2047       C  0.87952008  0.03983198  0.83697042     0.25900
C2048       C  0.86641026  0.03965854  0.81628384    -0.11800
C2049       C  0.84599308  0.02625364  0.81418503    -0.25700
C2050       C  0.83879730  0.01313286  0.83370664     0.36800
C2051       C  0.88723426  0.02623579  0.87797585     0.06300
F2052       F  0.89911649  0.05299948  0.83800459    -0.19500
H2053       H  0.87261263  0.04969741  0.80152554     0.16200
F2054       F  0.81915943  0.00014335  0.83274982    -0.23200
H2055       H  0.84628542  0.00306183  0.86938732     0.18000
C2056       C  0.87795514  0.03213968  0.90000837     0.26000
C2057       C  0.89261318  0.03328709  0.91983707    -0.11700
C2058       C  0.91680822  0.02870464  0.91802764    -0.25800
C2059       C  0.92586076  0.02219969  0.89596067     0.36900
C2060       C  0.91120726  0.02100329  0.87629088    -0.27400
F2061       F  0.85493814  0.03772143  0.90214953    -0.19500
H2062       H  0.88511978  0.03832022  0.93650395     0.16200
F2063       F  0.94886174  0.01669883  0.89331300    -0.23200
H2064       H  0.91866135  0.01608534  0.85955693     0.18000
C2065       C  0.20392251  0.88251993  0.08838547    -0.27300
C2066       C  0.19516400  0.86017478  0.09071312     0.06300
C2067       C  0.18670315  0.84871585  0.07083063     0.25900
C2068       C  0.18966053  0.85836898  0.04859153    -0.11800
C2069       C  0.20022323  0.87991521  0.04598810    -0.25700
C2070       C  0.20640270  0.89240308  0.06611568     0.36800
C2071       C  0.19852256  0.84767009  0.11299828     0.06300
F2072       F  0.17745725  0.82737664  0.07279003    -0.19500
H2073       H  0.18607846  0.84788171  0.03339294     0.16200
F2074       F  0.21691758  0.91316810  0.06404735    -0.23200
H2075       H  0.21053284  0.89155512  0.10360619     0.18000
C2076       C  0.21427139  0.82915667  0.11407400     0.26000
C2077       C  0.21912450  0.81847449  0.13552847    -0.11700
C2078       C  0.20831520  0.82599958  0.15631959    -0.25800
C2079       C  0.19213449  0.84433026  0.15498755     0.36900
C2080       C  0.18748922  0.85511199  0.13351261    -0.27400
F2081       F  0.22566877  0.82201322  0.09448652    -0.19500
H2082       H  0.23160108  0.80446926  0.13585584     0.16200
F2083       F  0.18119552  0.85233699  0.17444877    -0.23200
H2084       H  0.17544166  0.86946772  0.13290614     0.18000
C2085       C  0.22592029  0.85735124  0.87297443    -0.27300
C2086       C  0.22396807  0.84618069  0.89474584     0.06300
C2087       C  0.22695326  0.82221444  0.89584855     0.25900
C2088       C  0.23169494  0.80975198  0.87546510    -0.11800
C2089       C  0.23332889  0.82095866  0.85376964    -0.25700
C2090       C  0.23026556  0.84481945  0.85259706     0.36800
C2091       C  0.21904251  0.85950756  0.91627517     0.06300
F2092       F  0.22504314  0.81081710  0.91658225    -0.19500
H2093       H  0.23308618  0.79126363  0.87644584     0.16200
F2094       F  0.23033358  0.85580884  0.83154307    -0.23200
H2095       H  0.22328691  0.87569244  0.87165355     0.18000
C2096       C  0.23333218  0.87812625  0.92254668     0.26000
C2097       C  0.23089019  0.88827662  0.94458058    -0.11700
C2098       C  0.21429172  0.88000498  0.96072869    -0.25800
C2099       C  0.19870319  0.86268264  0.95368142     0.36900
C2100       C  0.20105586  0.85261468  0.93157353    -0.27400
F2101       F  0.25098050  0.88518595  0.90827411    -0.19500
H2102       H  0.24315954  0.90151533  0.94972051     0.16200
F2103       F  0.18293219  0.85371613  0.96895797    -0.23200
H2104       H  0.18959640  0.83856090  0.92687196     0.18000
C2105       C  0.11428714  0.95774731  0.01009975    -0.27300
C2106       C  0.11317406  0.93615650  0.99939692     0.06300
C2107       C  0.09117497  0.92810736  0.99162073     0.25900
C2108       C  0.07103148  0.94178411  0.99388800    -0.11800
C2109       C  0.07237777  0.96376399  0.00383970    -0.25700
C2110       C  0.09433069  0.97142574  0.01225936     0.36800
C2111       C  0.13504441  0.92225989  0.99715377     0.06300
F2112       F  0.08919618  0.90736335  0.98114375    -0.19500
H2113       H  0.05447662  0.93537370  0.98726305     0.16200
F2114       F  0.09668386  0.99211693  0.02281989    -0.23200
H2115       H  0.13073634  0.96406786  0.01707741     0.18000
C2116       C  0.15629807  0.93257534  0.99016671     0.26000
C2117       C  0.17731514  0.92026428  0.99110498    -0.11700
C2118       C  0.17767374  0.89732825  0.99850034    -0.25800
C2119       C  0.15631888  0.88650238  0.00392025     0.36900
C2120       C  0.13527091  0.89894355  0.00348011    -0.27400
F2121       F  0.15685164  0.95467021  0.98265882    -0.19500
H2122       H  0.19357565  0.92882502  0.98666800     0.16200
F2123       F  0.15564527  0.86397945  0.00957201    -0.23200
H2124       H  0.11926243  0.89047947  0.00888044     0.18000
C2125       C  0.74348006  0.22579445  0.12433535    -0.27300
C2126       C  0.74999228  0.24104921  0.10645243     0.06300
C2127       C  0.74488371  0.26453100  0.10893773     0.25900
C2128       C  0.73489873  0.27274409  0.12972627    -0.11800
C2129       C  0.72985273  0.25766772  0.14823041    -0.25700
C2130       C  0.73368978  0.23403801  0.14518177     0.36800
C2131       C  0.76341070  0.23275875  0.08592057     0.06300
F2132       F  0.75055090  0.27962840  0.09166761    -0.19500
H2133       H  0.73276162  0.29103665  0.13205115     0.16200
F2134       F  0.72982839  0.21919303  0.16318270    -0.23200
H2135       H  0.74731295  0.20768979  0.12272872     0.18000
C2136       C  0.78610263  0.24113573  0.08154686     0.26000
C2137       C  0.79731240  0.23618650  0.06037739    -0.11700
C2138       C  0.78625948  0.22255572  0.04340554    -0.25800
C2139       C  0.76460652  0.21225996  0.04878341     0.36900
C2140       C  0.75324319  0.21740718  0.06995163    -0.27400
F2141       F  0.79696342  0.25493926  0.09731506    -0.19500
H2142       H  0.81397416  0.24427938  0.05651212     0.16200
F2143       F  0.75335706  0.19920054  0.03263791    -0.23200
H2144       H  0.73590151  0.21053852  0.07323636     0.18000
C2145       C  0.73047000  0.23458115  0.89464758    -0.27300
C2146       C  0.74545281  0.21538051  0.89566432     0.06300
C2147       C  0.75035256  0.20340808  0.87497290     0.25900
C2148       C  0.74303700  0.21217551  0.85337370    -0.11800
C2149       C  0.73032684  0.23279029  0.85202951    -0.25700
C2150       C  0.72270145  0.24318175  0.87288561     0.36800
C2151       C  0.75888551  0.21024899  0.91736071     0.06300
F2152       F  0.76358698  0.18407432  0.87556067    -0.19500
H2153       H  0.74862781  0.20360724  0.83747791     0.16200
F2154       F  0.70971043  0.26267579  0.87218137    -0.23200
H2155       H  0.72625462  0.24387336  0.91052271     0.18000
C2156       C  0.78351389  0.21241003  0.91737273     0.26000
C2157       C  0.79599054  0.21206734  0.93853648    -0.11700
C2158       C  0.78421672  0.20911344  0.95990962    -0.25800
C2159       C  0.75990705  0.20479993  0.95968576     0.36900
C2160       C  0.74730948  0.20566517  0.93855610    -0.27400
F2161       F  0.79523826  0.21707844  0.89717350    -0.19500
H2162       H  0.81456168  0.21602543  0.93842413     0.16200
F2163       F  0.74800937  0.20220347  0.98014439    -0.23200
H2164       H  0.72839463  0.20388740  0.93885752     0.18000
C2165       C  0.82353816  0.14947385  0.99371717    -0.27300
C2166       C  0.84295990  0.15079761  0.00898711     0.06300
C2167       C  0.84414393  0.16941270  0.02457567     0.25900
C2168       C  0.82755143  0.18706582  0.02347717    -0.11800
C2169       C  0.80896936  0.18669391  0.00706512    -0.25700
C2170       C  0.80659784  0.16703016  0.99290808     0.36800
C2171       C  0.86265567  0.13377483  0.00771258     0.06300
F2172       F  0.86174679  0.17089260  0.04059856    -0.19500
H2173       H  0.83010895  0.20170600  0.03477570     0.16200
F2174       F  0.78816507  0.16477220  0.97804928    -0.23200
H2175       H  0.82191136  0.13524884  0.98168551     0.18000
C2176       C  0.85860827  0.10999292  0.00672326     0.26000
C2177       C  0.87751060  0.09450782  0.00570300    -0.11700
C2178       C  0.90095517  0.10226648  0.00552380    -0.25800
C2179       C  0.90487414  0.12615199  0.00599930     0.36900
C2180       C  0.88601182  0.14152671  0.00709453    -0.27400
F2181       F  0.83641115  0.10162457  0.00735930    -0.19500
H2182       H  0.87371518  0.07634261  0.00532317     0.16200
F2183       F  0.92692532  0.13488322  0.00511958    -0.23200
H2184       H  0.88973536  0.15971523  0.00714567     0.18000
C2185       C  0.79372648  0.82400484  0.06170968    -0.27300
C2186       C  0.80642604  0.82051533  0.08255899     0.06300
C2187       C  0.83096144  0.81818129  0.08151057     0.25900
C2188       C  0.84237001  0.81824418  0.05977193    -0.11800
C2189       C  0.82950877  0.82053875  0.03885109    -0.25700
C2190       C  0.80507796  0.82376338  0.04001538     0.36800
C2191       C  0.79363479  0.81669273  0.10480073     0.06300
F2192       F  0.84358177  0.81364367  0.10123074    -0.19500
H2193       H  0.86101078  0.81464589  0.05913278     0.16200
F2194       F  0.79194925  0.82452307  0.02009600    -0.23200
H2195       H  0.77478895  0.82561203  0.06217625     0.18000
C2196       C  0.79879538  0.82935582  0.12506126     0.26000
C2197       C  0.78632271  0.82542075  0.14580024    -0.11700
C2198       C  0.76872877  0.80853531  0.14684840    -0.25800
C2199       C  0.76393218  0.79556535  0.12651015     0.36900
C2200       C  0.77617739  0.79979944  0.10575431    -0.27400
F2201       F  0.81569380  0.84570760  0.12473691    -0.19500
H2202       H  0.79059132  0.83557138  0.16109945     0.16200
F2203       F  0.74779806  0.77845698  0.12661299    -0.23200
H2204       H  0.77229493  0.78954786  0.09040696     0.18000
C2205       C  0.80845800  0.79242381  0.86810204    -0.27300
C2206       C  0.79829366  0.78807884  0.89004516     0.06300
C2207       C  0.77645503  0.77675738  0.89103304     0.25900
C2208       C  0.76450622  0.77102052  0.87024467    -0.11800
C2209       C  0.77427964  0.77648750  0.84833856    -0.25700
C2210       C  0.79659506  0.78675386  0.84747301     0.36800
C2211       C  0.81059248  0.79558120  0.91168949     0.06300
F2212       F  0.76664009  0.77148484  0.91207059    -0.19500
H2213       H  0.74721400  0.76339920  0.87125552     0.16200
F2214       F  0.80648987  0.79218753  0.82650704    -0.23200
H2215       H  0.82528954  0.80096236  0.86693812     0.18000
C2216       C  0.83337453  0.78772998  0.91671213     0.26000
C2217       C  0.84406812  0.79320081  0.93807954    -0.11700
C2218       C  0.83247338  0.80693822  0.95461943    -0.25800
C2219       C  0.81061037  0.81654671  0.94868074     0.36900
C2220       C  0.79963347  0.81062429  0.92748084    -0.27400
F2221       F  0.84461481  0.77347446  0.90167710    -0.19500
H2222       H  0.86083342  0.78548093  0.94240548     0.16200
F2223       F  0.79896444  0.82996587  0.96420530    -0.23200
H2224       H  0.78229956  0.81729966  0.92363414     0.18000
C2225       C  0.85208442  0.88620388  0.00178592    -0.27300
C2226       C  0.87178489  0.88854486  0.98713315     0.06300
C2227       C  0.87867894  0.86956698  0.97358856     0.25900
C2228       C  0.86717720  0.84854095  0.97587658    -0.11800
C2229       C  0.84804158  0.84576680  0.99124026    -0.25700
C2230       C  0.84017200  0.86519184  0.00367509     0.36800
C2231       C  0.88649553  0.90976024  0.98763431     0.06300
F2232       F  0.89691046  0.87117515  0.95835275    -0.19500
H2233       H  0.87387168  0.83408313  0.96610708     0.16200
F2234       F  0.82102401  0.86413872  0.01762824    -0.23200
H2235       H  0.84633380  0.90044754  0.01245707     0.18000
C2236       C  0.87679810  0.93201092  0.98707339     0.26000
C2237       C  0.89141406  0.95140797  0.98855879    -0.11700
C2238       C  0.91595548  0.94903570  0.99072601    -0.25800
C2239       C  0.92544934  0.92665634  0.99102099     0.36900
C2240       C  0.91092212  0.90752949  0.98962895    -0.27400
F2241       F  0.85327856  0.93504870  0.98489726    -0.19500
H2242       H  0.88347369  0.96826532  0.98817960     0.16200
F2243       F  0.94886242  0.92290726  0.99325338    -0.23200
H2244       H  0.91892967  0.89073049  0.99075910     0.18000
loop_ 
_geom_bond_atom_site_label_1 
_geom_bond_atom_site_label_2 
_geom_bond_distance 
_geom_bond_site_symmetry_2 
_ccdc_geom_bond_type 
N1            C5   1.364       .  A
N1            C2   1.364   1_556  A
N1         C2229   1.456       .  S
C2            C3   1.381       .  A
C2         C2189   1.473       .  S
C3            C4   1.364   1_554  A
C3            H6   1.083       .  S
C4            C5   1.380       .  A
C4            H7   1.082       .  S
C5         C2218   1.481       .  S
N8           C12   1.365   1_554  A
N8            C9   1.363       .  A
N8         C2169   1.458       .  S
C9           C10   1.378       .  A
C9         C2138   1.478       .  S
C10          C11   1.363   1_554  A
C10          H13   1.083       .  S
C11          C12   1.382       .  A
C11          H14   1.083       .  S
C12        C2158   1.475       .  S
N15          C19   1.359   1_554  A
N15          C16   1.358       .  A
N15        C2118   1.443   1_554  S
C16          C17   1.380       .  A
C16        C2069   1.471       .  S
C17          C18   1.368   1_554  A
C17          H20   1.083       .  S
C18          C19   1.383       .  A
C18          H21   1.082       .  S
C19        C2098   1.478       .  S
N22          C26   1.360       .  A
N22          C23   1.359       .  A
N22        C2049   1.449       .  S
C23          C24   1.378       .  A
C23        C2038   1.477       .  S
C24          C25   1.369       .  A
C24          H27   1.082       .  S
C25          C26   1.384       .  A
C25          H28   1.083       .  S
C26        C2009   1.476   1_545  S
N29          C33   1.361   1_655  A
N29          C30   1.364       .  A
N29        C1989   1.453       .  S
C30          C31   1.383       .  A
C30        C1958   1.487       .  S
C31          C32   1.367   1_655  A
C31          H34   1.083       .  S
C32          C33   1.381       .  A
C32          H35   1.083       .  S
C33        C1969   1.477       .  S
N36          C40   1.362       .  A
N36          C37   1.360       .  A
N36        C1929   1.449       .  S
C37          C38   1.381       .  A
C37        C1889   1.480       .  S
C38          C39   1.366       .  A
C38          H41   1.082       .  S
C39          C40   1.381       .  A
C39          H42   1.083       .  S
C40        C1909   1.472   1_655  S
N43          C47   1.357       .  A
N43          C44   1.355       .  A
N43        C1869   1.441       .  S
C44          C45   1.382       .  A
C44        C1849   1.481       .  S
C45          C46   1.374       .  A
C45          H48   1.082       .  S
C46          C47   1.382       .  A
C46          H49   1.082       .  S
C47        C1838   1.473   1_545  S
N50          C54   1.367       .  A
N50          C51   1.366       .  A
N50        C1818   1.461       .  S
C51          C52   1.382       .  A
C51        C1789   1.482       .  S
C52          C53   1.365       .  A
C52          H55   1.083       .  S
C53          C54   1.380       .  A
C53          H56   1.082       .  S
C54        C1778   1.489   1_655  S
N57          C61   1.363       .  A
N57          C58   1.360       .  A
N57        C1758   1.451       .  S
C58          C59   1.379       .  A
C58        C1729   1.467       .  S
C59          C60   1.363       .  A
C59          H62   1.082       .  S
C60          C61   1.381       .  A
C60          H63   1.083       .  S
C61        C1718   1.469   1_545  S
N64          C68   1.367       .  A
N64          C65   1.366       .  A
N64        C1649   1.464       .  S
C65          C66   1.383       .  A
C65        C1678   1.484       .  S
C66          C67   1.364       .  A
C66          H69   1.083       .  S
C67          C68   1.381       .  A
C67          H70   1.082       .  S
C68        C1689   1.488   1_655  S
Zr71         O72   2.437       .  S
Zr71         O73   2.417       .  S
Zr71         O74   2.389       .  S
Zr71         O77   2.390       .  S
Zr71         O79   2.374       .  S
Zr71         O80   2.379       .  S
Zr71         O81   2.397       .  S
Zr71         O82   2.387       .  S
O72         H128   0.990       .  S
O72         H136   0.990       .  S
O73          C93   1.281       .  A
O74          C95   1.278       .  A
O75         Zr85   2.480       .  S
O75          C94   1.294       .  A
O76         Zr84   2.495       .  S
O76          C95   1.297       .  A
O77          C94   1.278       .  A
O78         Zr86   2.436       .  S
O78          C93   1.286       .  A
O79         Zr84   2.386       .  S
O79         Zr86   2.366       .  S
O80         Zr85   2.391       .  S
O80         Zr86   2.374       .  S
O80         H115   0.966       .  S
O81         Zr84   2.403       .  S
O81        Zr101   2.404       .  S
O81         H118   0.967       .  S
O82         Zr85   2.399       .  S
O82        Zr101   2.395       .  S
Zr83        O108   2.438       .  S
Zr83        O102   2.417       .  S
Zr83        O110   2.401       .  S
Zr83         O98   2.390       .  S
Zr83         O89   2.391       .  S
Zr83         O90   2.398       .  S
Zr83         O91   2.376       .  S
Zr83         O92   2.373       .  S
Zr84        O103   2.434       .  S
Zr84         O96   2.434       .  S
Zr84         O97   2.483       .  S
Zr84         O90   2.406       .  S
Zr84         O91   2.393       .  S
Zr85         O87   2.434       .  S
Zr85        O109   2.435       .  S
Zr85        O111   2.479       .  S
Zr85         O89   2.407       .  S
Zr85         O92   2.389       .  S
Zr86        O112   2.435       .  S
Zr86        O113   2.436       .  S
Zr86         O88   2.437       .  S
Zr86         O89   2.403       .  S
Zr86         O90   2.402       .  S
O87         H124   0.990       .  S
O88         H119   0.990       .  S
O88         H133   0.990       .  S
O90         H116   0.967       .  S
O91        Zr101   2.372       .  S
O92        Zr101   2.377       .  S
O92         H117   0.965       .  S
C93        C1589   1.487       .  S
C94        C1549   1.480       .  S
C95        C1569   1.488       .  S
O96         H132   0.989       .  S
O97          C99   1.294       .  A
O98          C99   1.278       .  A
C99        C1618   1.482       .  S
O100       Zr101   2.440       .  S
O100        H129   0.990       .  S
Zr101       O104   2.437       .  S
Zr101       O105   2.440       .  S
Zr101       O106   2.436       .  S
O102        C107   1.281       .  A
O103        H120   0.990       .  S
O103        H135   0.990       .  S
O104        H121   0.990       .  S
O105        H125   0.990       .  S
O105        H134   0.990       .  S
O106        C107   1.286       .  A
C107       C1629   1.484       .  S
O108        H127   0.990       .  S
O108        H131   0.990       .  S
O109        H123   0.990       .  S
O109        H130   0.990       .  S
O110        C114   1.279       .  A
O111        C114   1.294       .  A
O112        H122   0.990       .  S
O113        H126   0.989       .  S
C114       C1698   1.495       .  S
N137        C141   1.358       .  A
N137        C138   1.357       .  A
N137       C1509   1.445       .  S
C138        C139   1.381       .  A
C138       C1638   1.472       .  S
C139        C140   1.369       .  A
C139        H142   1.082       .  S
C140        C141   1.381       .  A
C140        H143   1.083       .  S
C141       C1538   1.469   1_545  S
Zr144       O145   2.440       .  S
Zr144       O146   2.422       .  S
Zr144       O147   2.396       .  S
Zr144       O150   2.384       .  S
Zr144       O152   2.374       .  S
Zr144       O153   2.377       .  S
Zr144       O154   2.393       .  S
Zr144       O155   2.393       .  S
O145        H201   0.990       .  S
O145        H209   0.990       .  S
O146        C166   1.283       .  A
O147        C168   1.278       .  A
O148       Zr158   2.484       .  S
O148        C167   1.295       .  A
O149       Zr157   2.478       .  S
O149        C168   1.293       .  A
O150        C167   1.278       .  A
O151       Zr159   2.430       .  S
O151        C166   1.284       .  A
O152       Zr157   2.391       .  S
O152       Zr159   2.377       .  S
O153       Zr158   2.388       .  S
O153       Zr159   2.371       .  S
O153        H188   0.966       .  S
O154       Zr157   2.399       .  S
O154       Zr174   2.397       .  S
O154        H191   0.966       .  S
O155       Zr158   2.402       .  S
O155       Zr174   2.400       .  S
Zr156       O181   2.440       .  S
Zr156       O175   2.418       .  S
Zr156       O183   2.404       .  S
Zr156       O171   2.394       .  S
Zr156       O162   2.393       .  S
Zr156       O163   2.398       .  S
Zr156       O164   2.373       .  S
Zr156       O165   2.373       .  S
Zr157       O176   2.436       .  S
Zr157       O169   2.436       .  S
Zr157       O170   2.461       .  S
Zr157       O163   2.406       .  S
Zr157       O164   2.396       .  S
Zr158       O160   2.433       .  S
Zr158       O182   2.436       .  S
Zr158       O184   2.482       .  S
Zr158       O162   2.399       .  S
Zr158       O165   2.394       .  S
Zr159       O185   2.437       .  S
Zr159       O186   2.438       .  S
Zr159       O161   2.436       .  S
Zr159       O162   2.402       .  S
Zr159       O163   2.396       .  S
O160        H197   0.990       .  S
O161        H192   0.990       .  S
O161        H206   0.990       .  S
O163        H189   0.966       .  S
O164       Zr174   2.369       .  S
O165       Zr174   2.374       .  S
O165        H190   0.965       .  S
C166       C1458   1.485       .  S
C167       C1478   1.486       .  S
C168       C1498   1.495       .  S
O169        H205   0.990       .  S
O170        C172   1.289       .  A
O171        C172   1.278       .  A
C172       C1529   1.466       .  S
O173       Zr174   2.434       .  S
O173        H202   0.990       .  S
Zr174       O177   2.436       .  S
Zr174       O178   2.436       .  S
Zr174       O179   2.431       .  S
O175        C180   1.281       .  A
O176        H193   0.990       .  S
O176        H208   0.990       .  S
O177        H194   0.990       .  S
O178        H198   0.990       .  S
O178        H207   0.990       .  S
O179        C180   1.284       .  A
C180       C2078   1.486       .  S
O181        H200   0.990       .  S
O181        H204   0.990       .  S
O182        H196   0.990       .  S
O182        H203   0.990       .  S
O183        C187   1.281       .  A
O184        C187   1.294       .  A
O185        H195   0.991       .  S
O186        H199   0.990       .  S
C187       C1769   1.499       .  S
Zr210       O211   2.437       .  S
Zr210       O212   2.407       .  S
Zr210       O213   2.391       .  S
Zr210       O216   2.387       .  S
Zr210       O218   2.372       .  S
Zr210       O219   2.377       .  S
Zr210       O220   2.395       .  S
Zr210       O221   2.391       .  S
O211        H267   0.990       .  S
O211        H275   0.990       .  S
O212        C232   1.279       .  A
O213        C234   1.278       .  A
O214       Zr224   2.474       .  S
O214        C233   1.292       .  A
O215       Zr223   2.496       .  S
O215        C234   1.297       .  A
O216        C233   1.277       .  A
O217       Zr225   2.439       .  S
O217        C232   1.286       .  A
O218       Zr223   2.382       .  S
O218       Zr225   2.365       .  S
O219       Zr224   2.387       .  S
O219       Zr225   2.367       .  S
O219        H254   0.966       .  S
O220       Zr223   2.407       .  S
O220       Zr240   2.404       .  S
O220        H257   0.967       .  S
O221       Zr224   2.406       .  S
O221       Zr240   2.403       .  S
Zr222       O247   2.439       .  S
Zr222       O241   2.438       .  S
Zr222       O249   2.413       .  S
Zr222       O237   2.385       .  S
Zr222       O228   2.394       .  S
Zr222       O229   2.407       .  S
Zr222       O230   2.376       .  S
Zr222       O231   2.372       .  S
Zr223       O242   2.435       .  S
Zr223       O235   2.436       .  S
Zr223       O236   2.484       .  S
Zr223       O229   2.411       .  S
Zr223       O230   2.398       .  S
Zr224       O226   2.432       .  S
Zr224       O248   2.436       .  S
Zr224       O250   2.477       .  S
Zr224       O228   2.402       .  S
Zr224       O231   2.395       .  S
Zr225       O251   2.437       .  S
Zr225       O252   2.435       .  S
Zr225       O227   2.437       .  S
Zr225       O228   2.405       .  S
Zr225       O229   2.401       .  S
O226        H263   0.990       .  S
O227        H258   0.990       .  S
O227        H272   0.990       .  S
O229        H255   0.966       .  S
O230       Zr240   2.366       .  S
O231       Zr240   2.372       .  S
O231        H256   0.965       .  S
C232       C1738   1.482       .  S
C233       C2129   1.467       .  S
C234       C1669   1.490       .  S
O235        H271   0.990       .  S
O236        C238   1.295       .  A
O237        C238   1.278       .  A
C238       C1389   1.493       .  S
O239       Zr240   2.435       .  S
O239        H268   0.990       .  S
Zr240       O243   2.435       .  S
Zr240       O244   2.440       .  S
Zr240       O245   2.429       .  S
O241        C246   1.285       .  A
O242        H259   0.990       .  S
O242        H274   0.990       .  S
O243        H260   0.990       .  S
O244        H264   0.990       .  S
O244        H273   0.990       .  S
O245        C246   1.283       .  A
C246       C1418   1.495       .  S
O247        H266   0.990       .  S
O247        H270   0.990       .  S
O248        H262   0.990       .  S
O248        H269   0.990       .  S
O249        C253   1.282       .  A
O250        C253   1.293       .  A
O251        H261   0.990       .  S
O252        H265   0.990       .  S
C253       C1438   1.496       .  S
Zr276       O277   2.436       .  S
Zr276       O278   2.408       .  S
Zr276       O279   2.395       .  S
Zr276       O282   2.397       .  S
Zr276       O284   2.372       .  S
Zr276       O285   2.377       .  S
Zr276       O286   2.392       .  S
Zr276       O287   2.387       .  S
O277        H333   0.990       .  S
O277        H341   0.990       .  S
O278        C298   1.280       .  A
O279        C300   1.279       .  A
O280       Zr290   2.465       .  S
O280        C299   1.291       .  A
O281       Zr289   2.479       .  S
O281        C300   1.294       .  A
O282        C299   1.280       .  A
O283       Zr291   2.445       .  S
O283        C298   1.287       .  A
O284       Zr289   2.385       .  S
O284       Zr291   2.358       .  S
O285       Zr290   2.384       .  S
O285       Zr291   2.368       .  S
O285        H320   0.965       .  S
O286       Zr289   2.407       .  S
O286       Zr306   2.391       .  S
O286        H323   0.966       .  S
O287       Zr290   2.403       .  S
O287       Zr306   2.395       .  S
Zr288       O313   2.440       .  S
Zr288       O307   2.429       .  S
Zr288       O315   2.389       .  S
Zr288       O303   2.395       .  S
Zr288       O294   2.396       .  S
Zr288       O295   2.398       .  S
Zr288       O296   2.370       .  S
Zr288       O297   2.381       .  S
Zr289       O308   2.434       .  S
Zr289       O301   2.435       .  S
Zr289       O302   2.485       .  S
Zr289       O295   2.399       .  S
Zr289       O296   2.386       .  S
Zr290       O292   2.434       .  S
Zr290       O314   2.437       .  S
Zr290       O316   2.464       .  S
Zr290       O294   2.395       .  S
Zr290       O297   2.396       .  S
Zr291       O317   2.436       .  S
Zr291       O318   2.436       .  S
Zr291       O293   2.436       .  S
Zr291       O294   2.405       .  S
Zr291       O295   2.400       .  S
O292        H329   0.990       .  S
O293        H324   0.990       .  S
O293        H338   0.990       .  S
O295        H321   0.964       .  S
O296       Zr306   2.372       .  S
O297       Zr306   2.378       .  S
O297        H322   0.966       .  S
C298       C1329   1.483       .  S
C299       C1358   1.480       .  S
C300       C1378   1.486       .  S
O301        H337   0.990       .  S
O302        C304   1.294       .  A
O303        C304   1.278       .  A
C304       C1798   1.482       .  S
O305       Zr306   2.435       .  S
O305        H334   0.990       .  S
Zr306       O309   2.434       .  S
Zr306       O310   2.439       .  S
Zr306       O311   2.415       .  S
O307        C312   1.284       .  A
O308        H325   0.990       .  S
O308        H340   0.990       .  S
O309        H326   0.990       .  S
O310        H330   0.990       .  S
O310        H339   0.990       .  S
O311        C312   1.281       .  A
C312       C2198   1.484       .  S
O313        H332   0.990       .  S
O313        H336   0.990       .  S
O314        H328   0.990       .  S
O314        H335   0.990       .  S
O315        C319   1.277       .  A
O316        C319   1.290       .  A
O317        H327   0.990       .  S
O318        H331   0.990       .  S
C319       C1709   1.465       .  S
N342        C346   1.365   1_554  A
N342        C343   1.366       .  A
N342       C1289   1.463       .  S
C343        C344   1.382       .  A
C343       C1609   1.486       .  S
C344        C345   1.364   1_554  A
C344        H347   1.083       .  S
C345        C346   1.381       .  A
C345        H348   1.082       .  S
C346       C1309   1.486       .  S
Zr349       O350   2.439       .  S
Zr349       O351   2.419       .  S
Zr349       O352   2.382       .  S
Zr349       O355   2.373       .  S
Zr349       O357   2.375       .  S
Zr349       O358   2.373       .  S
Zr349       O359   2.392       .  S
Zr349       O360   2.390       .  S
O350        H406   0.990       .  S
O350        H414   0.990       .  S
O351        C371   1.281       .  A
O352        C373   1.276       .  A
O353       Zr363   2.496       .  S
O353        C372   1.296       .  A
O354       Zr362   2.489       .  S
O354        C373   1.295       .  A
O355        C372   1.275       .  A
O356       Zr364   2.429       .  S
O356        C371   1.283       .  A
O357       Zr362   2.398       .  S
O357       Zr364   2.376       .  S
O358       Zr363   2.388       .  S
O358       Zr364   2.369       .  S
O358        H393   0.966       .  S
O359       Zr362   2.401       .  S
O359       Zr379   2.390       .  S
O359        H396   0.966       .  S
O360       Zr363   2.395       .  S
O360       Zr379   2.396       .  S
Zr361       O386   2.442       .  S
Zr361       O380   2.414       .  S
Zr361       O388   2.389       .  S
Zr361       O376   2.393       .  S
Zr361       O367   2.395       .  S
Zr361       O368   2.393       .  S
Zr361       O369   2.375       .  S
Zr361       O370   2.382       .  S
Zr362       O381   2.435       .  S
Zr362       O374   2.435       .  S
Zr362       O375   2.495       .  S
Zr362       O368   2.403       .  S
Zr362       O369   2.388       .  S
Zr363       O365   2.436       .  S
Zr363       O387   2.435       .  S
Zr363       O389   2.477       .  S
Zr363       O367   2.407       .  S
Zr363       O370   2.394       .  S
Zr364       O390   2.439       .  S
Zr364       O391   2.435       .  S
Zr364       O366   2.433       .  S
Zr364       O367   2.398       .  S
Zr364       O368   2.400       .  S
O365        H402   0.990       .  S
O366        H397   0.990       .  S
O366        H411   0.990       .  S
O368        H394   0.964       .  S
O369       Zr379   2.374       .  S
O370       Zr379   2.377       .  S
O370        H395   0.966       .  S
C371       C1858   1.476       .  S
C372       C1318   1.484       .  S
C373       C1978   1.478       .  S
O374        H410   0.990       .  S
O375        C377   1.296       .  A
O376        C377   1.277       .  A
C377       C1238   1.489       .  S
O378       Zr379   2.439       .  S
O378        H407   0.990       .  S
Zr379       O382   2.438       .  S
Zr379       O383   2.439       .  S
Zr379       O384   2.417       .  S
O380        C385   1.280       .  A
O381        H398   0.990       .  S
O381        H413   0.990       .  S
O382        H399   0.990       .  S
O383        H403   0.990       .  S
O383        H412   0.990       .  S
O384        C385   1.283       .  A
C385       C1249   1.472       .  S
O386        H405   0.990       .  S
O386        H409   0.990       .  S
O387        H401   0.990       .  S
O387        H408   0.990       .  S
O388        C392   1.277       .  A
O389        C392   1.293       .  A
O390        H400   0.990       .  S
O391        H404   0.989       .  S
C392       C1269   1.479       .  S
Zr415       O416   2.437       .  S
Zr415       O417   2.426       .  S
Zr415       O418   2.393       .  S
Zr415       O421   2.392       .  S
Zr415       O423   2.374       .  S
Zr415       O424   2.377       .  S
Zr415       O425   2.397       .  S
Zr415       O426   2.390       .  S
O416        H472   0.990       .  S
O416        H480   0.990       .  S
O417        C437   1.284       .  A
O418        C439   1.278       .  A
O419       Zr429   2.459       .  S
O419        C438   1.290       .  A
O420       Zr428   2.463       .  S
O420        C439   1.290       .  A
O421        C438   1.280       .  A
O422       Zr430   2.426       .  S
O422        C437   1.283       .  A
O423       Zr428   2.386       .  S
O423       Zr430   2.360       .  S
O424       Zr429   2.389       .  S
O424       Zr430   2.369       .  S
O424        H459   0.966       .  S
O425       Zr428   2.405       .  S
O425       Zr445   2.398       .  S
O425        H462   0.967       .  S
O426       Zr429   2.399       .  S
O426       Zr445   2.399       .  S
Zr427       O452   2.439       .  S
Zr427       O446   2.411       .  S
Zr427       O454   2.388       .  S
Zr427       O442   2.378       .  S
Zr427       O433   2.383       .  S
Zr427       O434   2.392       .  S
Zr427       O435   2.372       .  S
Zr427       O436   2.377       .  S
Zr428       O447   2.436       .  S
Zr428       O440   2.435       .  S
Zr428       O441   2.479       .  S
Zr428       O434   2.400       .  S
Zr428       O435   2.385       .  S
Zr429       O431   2.435       .  S
Zr429       O453   2.438       .  S
Zr429       O455   2.462       .  S
Zr429       O433   2.396       .  S
Zr429       O436   2.388       .  S
Zr430       O456   2.435       .  S
Zr430       O457   2.435       .  S
Zr430       O432   2.437       .  S
Zr430       O433   2.393       .  S
Zr430       O434   2.402       .  S
O431        H468   0.990       .  S
O432        H463   0.990       .  S
O432        H477   0.990       .  S
O434        H460   0.967       .  S
O435       Zr445   2.367       .  S
O436       Zr445   2.382       .  S
O436        H461   0.966       .  S
C437       C1829   1.487       .  S
C438       C1918   1.481       .  S
C439       C2089   1.463       .  S
O440        H476   0.990       .  S
O441        C443   1.293       .  A
O442        C443   1.275       .  A
C443       C1189   1.478       .  S
O444       Zr445   2.436       .  S
O444        H473   0.990       .  S
Zr445       O448   2.436       .  S
Zr445       O449   2.440       .  S
Zr445       O450   2.434       .  S
O446        C451   1.281       .  A
O447        H464   0.989       .  S
O447        H479   0.990       .  S
O448        H465   0.990       .  S
O449        H469   0.990       .  S
O449        H478   0.990       .  S
O450        C451   1.284       .  A
C451       C1209   1.482       .  S
O452        H471   0.990       .  S
O452        H475   0.990       .  S
O453        H467   0.990       .  S
O453        H474   0.990       .  S
O454        C458   1.278       .  A
O455        C458   1.290       .  A
O456        H466   0.990       .  S
O457        H470   0.989       .  S
C458       C1169   1.477       .  S
Zr481       O482   2.437       .  S
Zr481       O483   2.418       .  S
Zr481       O484   2.399       .  S
Zr481       O487   2.384       .  S
Zr481       O489   2.370       .  S
Zr481       O490   2.377       .  S
Zr481       O491   2.393       .  S
Zr481       O492   2.399       .  S
O482        H538   0.990       .  S
O482        H546   0.990       .  S
O483        C503   1.282       .  A
O484        C505   1.280       .  A
O485       Zr495   2.499       .  S
O485        C504   1.297       .  A
O486       Zr494   2.463       .  S
O486        C505   1.289       .  A
O487        C504   1.277       .  A
O488       Zr496   2.444       .  S
O488        C503   1.286       .  A
O489       Zr494   2.391       .  S
O489       Zr496   2.369       .  S
O490       Zr495   2.390       .  S
O490       Zr496   2.372       .  S
O490        H525   0.966       .  S
O491       Zr494   2.406       .  S
O491       Zr511   2.404       .  S
O491        H528   0.967       .  S
O492       Zr495   2.401       .  S
O492       Zr511   2.398       .  S
Zr493       O518   2.437       .  S
Zr493       O512   2.422       .  S
Zr493       O520   2.386       .  S
Zr493       O508   2.407       .  S
Zr493       O499   2.400       .  S
Zr493       O500   2.397       .  S
Zr493       O501   2.365       .  S
Zr493       O502   2.387       .  S
Zr494       O513   2.438       .  S
Zr494       O506   2.437       .  S
Zr494       O507   2.473       .  S
Zr494       O500   2.406       .  S
Zr494       O501   2.384       .  S
Zr495       O497   2.435       .  S
Zr495       O519   2.436       .  S
Zr495       O521   2.493       .  S
Zr495       O499   2.405       .  S
Zr495       O502   2.400       .  S
Zr496       O522   2.436       .  S
Zr496       O523   2.436       .  S
Zr496       O498   2.436       .  S
Zr496       O499   2.404       .  S
Zr496       O500   2.412       .  S
O497        H534   0.990       .  S
O498        H529   0.990       .  S
O498        H543   0.990       .  S
O500        H526   0.967       .  S
O501       Zr511   2.365       .  S
O502       Zr511   2.372       .  S
O502        H527   0.965       .  S
C503       C2029   1.488       .  S
C504       C1949   1.485       .  S
C505       C2149   1.476       .  S
O506        H542   0.989       .  S
O507        C509   1.292       .  A
O508        C509   1.280       .  A
C509       C1129   1.478       .  S
O510       Zr511   2.435       .  S
O510        H539   0.990       .  S
Zr511       O514   2.435       .  S
Zr511       O515   2.438       .  S
Zr511       O516   2.441       .  S
O512        C517   1.282       .  A
O513        H530   0.990       .  S
O513        H545   0.990       .  S
O514        H531   0.990       .  S
O515        H535   0.990       .  S
O515        H544   0.990       .  S
O516        C517   1.287       .  A
C517       C1149   1.493       .  S
O518        H537   0.990       .  S
O518        H541   0.990       .  S
O519        H533   0.990       .  S
O519        H540   0.990       .  S
O520        C524   1.277       .  A
O521        C524   1.296       .  A
O522        H532   0.990       .  S
O523        H536   0.990       .  S
C524       C1109   1.491       .  S
Zr547       O548   2.437       .  S
Zr547       O549   2.419       .  S
Zr547       O550   2.397       .  S
Zr547       O553   2.384       .  S
Zr547       O555   2.370       .  S
Zr547       O556   2.379       .  S
Zr547       O557   2.394       .  S
Zr547       O558   2.396       .  S
O548        H604   0.990       .  S
O548        H612   0.990       .  S
O549        C569   1.282       .  A
O550        C571   1.278       .  A
O551       Zr561   2.484       .  S
O551        C570   1.295       .  A
O552       Zr560   2.473       .  S
O552        C571   1.291       .  A
O553        C570   1.278       .  A
O554       Zr562   2.444       .  S
O554        C569   1.287       .  A
O555       Zr560   2.387       .  S
O555       Zr562   2.367       .  S
O556       Zr561   2.390       .  S
O556       Zr562   2.363       .  S
O556        H591   0.965       .  S
O557       Zr560   2.402       .  S
O557       Zr577   2.403       .  S
O557        H594   0.967       .  S
O558       Zr561   2.404       .  S
O558       Zr577   2.399       .  S
Zr559       O584   2.439       .  S
Zr559       O578   2.428       .  S
Zr559       O586   2.391       .  S
Zr559       O574   2.388       .  S
Zr559       O565   2.394       .  S
Zr559       O566   2.398       .  S
Zr559       O567   2.371       .  S
Zr559       O568   2.375       .  S
Zr560       O579   2.439       .  S
Zr560       O572   2.435       .  S
Zr560       O573   2.476       .  S
Zr560       O566   2.405       .  S
Zr560       O567   2.385       .  S
Zr561       O563   2.434       .  S
Zr561       O585   2.436       .  S
Zr561       O587   2.486       .  S
Zr561       O565   2.404       .  S
Zr561       O568   2.392       .  S
Zr562       O588   2.436       .  S
Zr562       O589   2.438       .  S
Zr562       O564   2.437       .  S
Zr562       O565   2.402       .  S
Zr562       O566   2.404       .  S
O563        H600   0.990       .  S
O564        H595   0.990       .  S
O564        H609   0.990       .  S
O566        H592   0.966       .  S
O567       Zr577   2.372       .  S
O568       Zr577   2.368       .  S
O568        H593   0.965       .  S
C569       C1898   1.486       .  S
C570       C2018   1.483       .  S
C571       C2209   1.474       .  S
O572        H608   0.990       .  S
O573        C575   1.293       .  A
O574        C575   1.278       .  A
C575       C1069   1.493       .  S
O576       Zr577   2.437       .  S
O576        H605   0.990       .  S
Zr577       O580   2.435       .  S
Zr577       O581   2.437       .  S
Zr577       O582   2.433       .  S
O578        C583   1.284       .  A
O579        H596   0.990       .  S
O579        H611   0.990       .  S
O580        H597   0.990       .  S
O581        H601   0.990       .  S
O581        H610   0.990       .  S
O582        C583   1.285       .  A
C583       C1089   1.482       .  S
O584        H603   0.990       .  S
O584        H607   0.990       .  S
O585        H599   0.990       .  S
O585        H606   0.990       .  S
O586        C590   1.279       .  A
O587        C590   1.295       .  A
O588        H598   0.990       .  S
O589        H602   0.990       .  S
C590       C1049   1.484       .  S
N613        C617   1.360       .  A
N613        C614   1.358       .  A
N613       C1029   1.445       .  S
C614        C615   1.381       .  A
C614       C1098   1.481       .  S
C615        C616   1.370       .  A
C615        H618   1.082       .  S
C616        C617   1.381       .  A
C616        H619   1.082       .  S
C617       C1198   1.473       .  S
N620        C624   1.355       .  A
N620        C621   1.353       .  A
N620       C1018   1.439       .  S
C621        C622   1.380       .  A
C621       C1258   1.467       .  S
C622        C623   1.371       .  A
C622        H625   1.082       .  S
C623        C624   1.383       .  A
C623        H626   1.082       .  S
C624       C1218   1.472       .  S
N627        C631   1.366       .  A
N627        C628   1.365       .  A
N627        C998   1.458       .  S
C628        C629   1.383       .  A
C628       C1138   1.496       .  S
C629        C630   1.365       .  A
C629        H632   1.082       .  S
C630        C631   1.382       .  A
C630        H633   1.083       .  S
C631       C1278   1.485       .  S
N634        C638   1.361       .  A
N634        C635   1.361       .  A
N634        C969   1.449       .  S
C635        C636   1.381       .  A
C635       C1158   1.475       .  S
C636        C637   1.368       .  A
C636        H639   1.083       .  S
C637        C638   1.382       .  A
C637        H640   1.082       .  S
C638       C1078   1.479       .  S
N641        C645   1.370       .  A
N641        C642   1.369       .  A
N641        C949   1.467       .  S
C642        C643   1.379       .  A
C642       C1429   1.490       .  S
C643        C644   1.361       .  A
C643        H646   1.082       .  S
C644        C645   1.383       .  A
C644        H647   1.083       .  S
C645       C1578   1.489       .  S
N648        C652   1.369       .  A
N648        C649   1.364       .  A
N648        C938   1.453       .  S
C649        C650   1.378       .  A
C649       C1409   1.474       .  S
C650        C651   1.363       .  A
C650        H653   1.083       .  S
C651        C652   1.383       .  A
C651        H654   1.083       .  S
C652       C1369   1.485       .  S
N655        C659   1.368       .  A
N655        C656   1.369       .  A
N655        C909   1.471       .  S
C656        C657   1.385       .  A
C656       C1349   1.490       .  S
C657        C658   1.363       .  A
C657        H660   1.083       .  S
C658        C659   1.382       .  A
C658        H661   1.081       .  S
C659       C1489   1.494       .  S
N662        C666   1.359       .  A
N662        C663   1.360       .  A
N662        C898   1.444       .  S
C663        C664   1.382       .  A
C663       C1598   1.475       .  S
C664        C665   1.369       .  A
C664        H667   1.083       .  S
C665        C666   1.380       .  A
C665        H668   1.082       .  S
C666       C1469   1.480       .  S
N669        C673   1.364       .  A
N669        C670   1.360       .  A
N669        C869   1.449       .  S
C670        C671   1.380       .  A
C670       C1338   1.482       .  S
C671        C672   1.368       .  A
C671        H674   1.082       .  S
C672        C673   1.383       .  A
C672        H675   1.083       .  S
C673       C1058   1.479       .  S
N676        C680   1.369       .  A
N676        C677   1.366       .  A
N676        C849   1.462       .  S
C677        C678   1.378       .  A
C677       C1398   1.486       .  S
C678        C679   1.362       .  A
C678        H681   1.082       .  S
C679        C680   1.386       .  A
C679        H682   1.083       .  S
C680       C1118   1.489       .  S
N683        C687   1.365       .  A
N683        C684   1.359       .  A
N683        C838   1.455       .  S
C684        C685   1.378       .  A
C684       C1449   1.475       .  S
C685        C686   1.368       .  A
C685        H688   1.082       .  S
C686        C687   1.385       .  A
C686        H689   1.083       .  S
C687       C1178   1.479       .  S
N690        C694   1.362       .  A
N690        C691   1.365       .  A
N690        C809   1.462       .  S
C691        C692   1.383       .  A
C691       C1558   1.484       .  S
C692        C693   1.368       .  A
C692        H695   1.083       .  S
C693        C694   1.380       .  A
C693        H696   1.082       .  S
C694       C1229   1.488       .  S
O697       Zr733   2.464   1_566  S
O697        C708   1.297       .  A
O698       Zr732   2.420       .  S
O698        C709   1.289   1_545  A
O699       Zr705   2.455       .  S
O699        C710   1.295       .  A
O700       Zr705   2.440   1_554  S
O700        C711   1.293       .  A
O701       Zr735   2.491   1_565  S
O701        C711   1.302       .  A
O702       Zr734   2.446       .  S
O702        C710   1.294   1_545  A
O703       Zr705   2.465   1_454  S
O703        C709   1.297       .  A
O704       Zr705   2.431       .  S
O704        C708   1.291       .  A
Zr705       O706   2.342   1_666  S
Zr705       O707   2.341   1_565  S
Zr705       O715   2.352   1_566  S
Zr705       O713   2.334   1_665  S
O706       Zr732   2.341       .  S
O706       Zr735   2.340   1_455  S
O707       Zr733   2.342   1_556  S
O707       Zr734   2.336       .  S
C708       C2238   1.497       .  S
C709       C2109   1.490       .  S
C710       C1938   1.493       .  S
C711       C1809   1.509       .  S
H712        O713   0.965       .  S
O713       Zr732   2.339   1_556  S
O713       Zr734   2.336   1_455  S
H714        O715   0.966   1_565  S
O715       Zr733   2.355       .  S
O715       Zr735   2.349       .  S
O716       Zr732   2.430       .  S
O716        C739   1.290       .  A
O717       Zr733   2.460       .  S
O717        C740   1.297       .  A
O718       Zr734   2.446   1_455  S
O718        C741   1.293       .  A
O719       Zr735   2.467   1_455  S
O719        C742   1.298       .  A
O720       Zr735   2.452       .  S
O720        C743   1.296       .  A
O721       Zr734   2.433       .  S
O721        C744   1.291       .  A
O722       Zr736   2.482   1_556  S
O722        C745   1.301       .  A
O723       Zr736   2.483       .  S
O723        C746   1.301       .  A
O724       Zr734   2.432       .  S
O724        C745   1.291       .  A
O725       Zr735   2.458       .  S
O725        C746   1.297       .  A
O726       Zr732   2.437   1_556  S
O726        C741   1.293       .  A
O727       Zr733   2.462   1_556  S
O727        C744   1.296       .  A
O728       Zr733   2.444       .  S
O728        C743   1.294       .  A
O729       Zr732   2.433       .  S
O729        C742   1.291       .  A
O730       Zr736   2.463   1_455  S
O730        C739   1.296       .  A
O731       Zr736   2.454       .  S
O731        C740   1.296       .  A
Zr732       O738   2.338   1_554  S
Zr732       O750   2.335       .  S
Zr733       O737   2.350       .  S
Zr733       O748   2.352   1_554  S
Zr734       O738   2.345   1_655  S
Zr734       O748   2.352       .  S
Zr735       O737   2.358       .  S
Zr735       O750   2.355   1_655  S
Zr736       O737   2.355       .  S
Zr736       O738   2.349   1_654  S
Zr736       O750   2.356   1_655  S
Zr736       O748   2.361   1_554  S
C739       C1298   1.479       .  S
C740       C2178   1.502       .  S
C741       C1878   1.486       .  S
C742       C1518   1.499       .  S
C743       C1749   1.497       .  S
C744       C2058   1.491       .  S
C745       C1998   1.501       .  S
C746       C1658   1.513       .  S
H747        O748   0.966       .  S
H749        O750   0.966       .  S
O751       Zr787   2.434       .  S
O751        C762   1.292       .  A
O752       Zr786   2.472       .  S
O752        C763   1.298       .  A
O753       Zr759   2.447       .  S
O753        C764   1.294       .  A
O754       Zr759   2.454       .  S
O754        C765   1.296       .  A
O755       Zr789   2.470       .  S
O755        C765   1.298       .  A
O756       Zr788   2.436       .  S
O756        C764   1.292       .  A
O757       Zr759   2.434       .  S
O757        C763   1.292       .  A
O758       Zr759   2.442       .  S
O758        C762   1.294       .  A
Zr759       O760   2.344       .  S
Zr759       O761   2.336       .  S
Zr759       O769   2.341       .  S
Zr759       O767   2.347       .  S
O760       Zr786   2.357       .  S
O760       Zr789   2.345       .  S
O761       Zr787   2.333       .  S
O761       Zr788   2.331       .  S
C762       C1038   1.485       .  S
C763        C989   1.484       .  S
C764       C1009   1.482       .  S
C765        C978   1.507       .  S
H766        O767   0.965       .  S
O767       Zr786   2.348       .  S
O767       Zr788   2.340       .  S
H768        O769   0.966       .  S
O769       Zr787   2.353       .  S
O769       Zr789   2.344       .  S
O770       Zr786   2.463       .  S
O770        C793   1.298       .  A
O771       Zr787   2.435       .  S
O771        C794   1.292       .  A
O772       Zr788   2.437       .  S
O772        C795   1.292       .  A
O773       Zr789   2.451       .  S
O773        C796   1.295       .  A
O774       Zr789   2.461       .  S
O774        C797   1.296       .  A
O775       Zr788   2.440       .  S
O775        C798   1.293       .  A
O776       Zr790   2.466       .  S
O776        C799   1.297       .  A
O777       Zr790   2.467       .  S
O777        C800   1.298       .  A
O778       Zr788   2.426       .  S
O778        C799   1.291       .  A
O779       Zr789   2.437       .  S
O779        C800   1.293       .  A
O780       Zr786   2.479       .  S
O780        C795   1.299       .  A
O781       Zr787   2.472       .  S
O781        C798   1.298       .  A
O782       Zr787   2.438       .  S
O782        C797   1.294       .  A
O783       Zr786   2.473       .  S
O783        C796   1.299       .  A
O784       Zr790   2.450       .  S
O784        C793   1.296       .  A
O785       Zr790   2.495       .  S
O785        C794   1.303       .  A
Zr786       O792   2.358       .  S
Zr786       O804   2.361       .  S
Zr787       O791   2.345       .  S
Zr787       O802   2.340       .  S
Zr788       O792   2.337       .  S
Zr788       O802   2.348       .  S
Zr789       O791   2.349       .  S
Zr789       O804   2.355       .  S
Zr790       O791   2.340       .  S
Zr790       O792   2.360       .  S
Zr790       O804   2.366       .  S
Zr790       O802   2.351       .  S
C793        C958   1.500       .  S
C794        C918   1.513       .  S
C795        C818   1.492       .  S
C796        C858   1.508       .  S
C797        C878   1.497       .  S
C798        C829   1.502       .  S
C799        C889   1.489       .  S
C800        C929   1.499       .  S
H801        O802   0.966       .  S
H803        O804   0.965       .  S
C805        C806   1.399       .  A
C805        C810   1.400       .  A
C805        H815   1.084       .  S
C806        C807   1.406       .  A
C806        C811   1.490       .  S
C807        C808   1.407       .  A
C807        F812   1.357       .  S
C808        C809   1.412       .  A
C808        H813   1.080       .  S
C809        C810   1.421       .  A
C810        F814   1.355       .  S
C811        C816   1.404       .  A
C811        C820   1.408       .  A
C816        C817   1.400       .  A
C816        F821   1.358       .  S
C817        C818   1.407       .  A
C817        H822   1.084       .  S
C818        C819   1.410       .  A
C819        C820   1.410       .  A
C819        F823   1.357       .  S
C820        H824   1.083       .  S
C825        C826   1.405       .  A
C825        C830   1.400       .  A
C825        H835   1.083       .  S
C826        C827   1.410       .  A
C826        C831   1.500       .  S
C827        C828   1.410       .  A
C827        F832   1.357       .  S
C828        C829   1.411       .  A
C828        H833   1.083       .  S
C829        C830   1.414       .  A
C830        F834   1.358       .  S
C831        C836   1.407       .  A
C831        C840   1.410       .  A
C836        C837   1.397       .  A
C836        F841   1.358       .  S
C837        C838   1.409       .  A
C837        H842   1.083       .  S
C838        C839   1.410       .  A
C839        C840   1.412       .  A
C839        F843   1.354       .  S
C840        H844   1.083       .  S
C845        C846   1.410       .  A
C845        C850   1.414       .  A
C845        H855   1.083       .  S
C846        C847   1.407       .  A
C846        C851   1.506       .  S
C847        C848   1.399       .  A
C847        F852   1.358       .  S
C848        C849   1.411       .  A
C848        H853   1.082       .  S
C849        C850   1.413       .  A
C850        F854   1.354       .  S
C851        C856   1.411       .  A
C851        C860   1.406       .  A
C856        C857   1.412       .  A
C856        F861   1.357       .  S
C857        C858   1.413       .  A
C857        H862   1.083       .  S
C858        C859   1.414       .  A
C859        C860   1.400       .  A
C859        F863   1.357       .  S
C860        H864   1.083       .  S
C865        C866   1.404       .  A
C865        C870   1.397       .  A
C865        H875   1.083       .  S
C866        C867   1.410       .  A
C866        C871   1.494       .  S
C867        C868   1.409       .  A
C867        F872   1.357       .  S
C868        C869   1.406       .  A
C868        H873   1.082       .  S
C869        C870   1.411       .  A
C870        F874   1.357       .  S
C871        C876   1.406       .  A
C871        C880   1.407       .  A
C876        C877   1.397       .  A
C876        F881   1.358       .  S
C877        C878   1.409       .  A
C877        H882   1.083       .  S
C878        C879   1.414       .  A
C879        C880   1.408       .  A
C879        F883   1.357       .  S
C880        H884   1.083       .  S
C885        C886   1.405       .  A
C885        C890   1.408       .  A
C885        H895   1.083       .  S
C886        C887   1.402       .  A
C886        C891   1.482       .  S
C887        C888   1.393       .  A
C887        F892   1.358       .  S
C888        C889   1.408       .  A
C888        H893   1.083       .  S
C889        C890   1.412       .  A
C890        F894   1.357       .  S
C891        C896   1.404       .  A
C891        C900   1.405       .  A
C896        C897   1.396       .  A
C896        F901   1.358       .  S
C897        C898   1.406       .  A
C897        H902   1.083       .  S
C898        C899   1.407       .  A
C899        C900   1.406       .  A
C899        F903   1.355       .  S
C900        H904   1.083       .  S
C905        C906   1.406       .  A
C905        C910   1.412       .  A
C905        H915   1.083       .  S
C906        C907   1.406       .  A
C906        C911   1.505       .  S
C907        C908   1.404       .  A
C907        F912   1.358       .  S
C908        C909   1.416       .  A
C908        H913   1.081       .  S
C909        C910   1.419       .  A
C910        F914   1.353       .  S
C911        C916   1.410       .  A
C911        C920   1.404       .  A
C916        C917   1.414       .  A
C916        F921   1.356       .  S
C917        C918   1.412       .  A
C917        H922   1.083       .  S
C918        C919   1.419       .  A
C919        C920   1.403       .  A
C919        F923   1.358       .  S
C920        H924   1.084       .  S
C925        C926   1.412       .  A
C925        C930   1.411       .  A
C925        H935   1.082       .  S
C926        C927   1.409       .  A
C926        C931   1.505       .  S
C927        C928   1.397       .  A
C927        F932   1.357       .  S
C928        C929   1.408       .  A
C928        H933   1.083       .  S
C929        C930   1.412       .  A
C930        F934   1.357       .  S
C931        C936   1.412       .  A
C931        C940   1.410       .  A
C936        C937   1.407       .  A
C936        F941   1.357       .  S
C937        C938   1.408       .  A
C937        H942   1.081       .  S
C938        C939   1.407       .  A
C939        C940   1.402       .  A
C939        F943   1.356       .  S
C940        H944   1.083       .  S
C945        C946   1.404       .  A
C945        C950   1.400       .  A
C945        H955   1.084       .  S
C946        C947   1.411       .  A
C946        C951   1.505       .  S
C947        C948   1.413       .  A
C947        F952   1.357       .  S
C948        C949   1.413       .  A
C948        H953   1.080       .  S
C949        C950   1.420       .  A
C950        F954   1.355       .  S
C951        C956   1.412       .  A
C951        C960   1.407       .  A
C956        C957   1.410       .  A
C956        F961   1.357       .  S
C957        C958   1.411       .  A
C957        H962   1.083       .  S
C958        C959   1.411       .  A
C959        C960   1.399       .  A
C959        F963   1.358       .  S
C960        H964   1.083       .  S
C965        C966   1.406       .  A
C965        C970   1.400       .  A
C965        H975   1.083       .  S
C966        C967   1.412       .  A
C966        C971   1.501       .  S
C967        C968   1.410       .  A
C967        F972   1.356       .  S
C968        C969   1.405       .  A
C968        H973   1.082       .  S
C969        C970   1.408       .  A
C970        F974   1.357       .  S
C971        C976   1.409       .  A
C971        C980   1.407       .  A
C976        C977   1.403       .  A
C976        F981   1.358       .  S
C977        C978   1.410       .  A
C977        H982   1.083       .  S
C978        C979   1.415       .  A
C979        C980   1.410       .  A
C979        F983   1.357       .  S
C980        H984   1.083       .  S
C985        C986   1.408       .  A
C985        C990   1.409       .  A
C985        H995   1.083       .  S
C986        C987   1.404       .  A
C986        C991   1.488       .  S
C987        C988   1.398       .  A
C987        F992   1.357       .  S
C988        C989   1.405       .  A
C988        H993   1.084       .  S
C989        C990   1.408       .  A
C990        F994   1.357       .  S
C991        C996   1.406       .  A
C991       C1000   1.400       .  A
C996        C997   1.408       .  A
C996       F1001   1.357       .  S
C997        C998   1.410       .  A
C997       H1002   1.081       .  S
C998        C999   1.418       .  A
C999       C1000   1.400       .  A
C999       F1003   1.356       .  S
C1000      H1004   1.084       .  S
C1005      C1006   1.405       .  A
C1005      C1010   1.398       .  A
C1005      H1015   1.083       .  S
C1006      C1007   1.407       .  A
C1006      C1011   1.486       .  S
C1007      C1008   1.400       .  A
C1007      F1012   1.357       .  S
C1008      C1009   1.406       .  A
C1008      H1013   1.083       .  S
C1009      C1010   1.408       .  A
C1010      F1014   1.358       .  S
C1011      C1016   1.408       .  A
C1011      C1020   1.406       .  A
C1016      C1017   1.397       .  A
C1016      F1021   1.357       .  S
C1017      C1018   1.401       .  A
C1017      H1022   1.083       .  S
C1018      C1019   1.405       .  A
C1019      C1020   1.401       .  A
C1019      F1023   1.354       .  S
C1020      H1024   1.083       .  S
C1025      C1026   1.401       .  A
C1025      C1030   1.391       .  A
C1025      H1035   1.084       .  S
C1026      C1027   1.408       .  A
C1026      C1031   1.483       .  S
C1027      C1028   1.407       .  A
C1027      F1032   1.357       .  S
C1028      C1029   1.407       .  A
C1028      H1033   1.080       .  S
C1029      C1030   1.408       .  A
C1030      F1034   1.357       .  S
C1031      C1036   1.406       .  A
C1031      C1040   1.403       .  A
C1036      C1037   1.403       .  A
C1036      F1041   1.357       .  S
C1037      C1038   1.409       .  A
C1037      H1042   1.083       .  S
C1038      C1039   1.408       .  A
C1039      C1040   1.394       .  A
C1039      F1043   1.357       .  S
C1040      H1044   1.084       .  S
C1045      C1046   1.414       .  A
C1045      C1050   1.409       .  A
C1045      H1055   1.082       .  S
C1046      C1047   1.409       .  A
C1046      C1051   1.501       .  S
C1047      C1048   1.395       .  A
C1047      F1052   1.357       .  S
C1048      C1049   1.406       .  A
C1048      H1053   1.084       .  S
C1049      C1050   1.405       .  A
C1050      F1054   1.357       .  S
C1051      C1056   1.413       .  A
C1051      C1060   1.408       .  A
C1056      C1057   1.406       .  A
C1056      F1061   1.357       .  S
C1057      C1058   1.405       .  A
C1057      H1062   1.083       .  S
C1058      C1059   1.404       .  A
C1059      C1060   1.398       .  A
C1059      F1063   1.358       .  S
C1060      H1064   1.082       .  S
C1065      C1066   1.411       .  A
C1065      C1070   1.404       .  A
C1065      H1075   1.083       .  S
C1066      C1067   1.402       .  A
C1066      C1071   1.490       .  S
C1067      C1068   1.393       .  A
C1067      F1072   1.358       .  S
C1068      C1069   1.413       .  A
C1068      H1073   1.083       .  S
C1069      C1070   1.407       .  A
C1070      F1074   1.357       .  S
C1071      C1076   1.412       .  A
C1071      C1080   1.404       .  A
C1076      C1077   1.401       .  A
C1076      F1081   1.357       .  S
C1077      C1078   1.402       .  A
C1077      H1082   1.083       .  S
C1078      C1079   1.406       .  A
C1079      C1080   1.396       .  A
C1079      F1083   1.357       .  S
C1080      H1084   1.083       .  S
C1085      C1086   1.406       .  A
C1085      C1090   1.401       .  A
C1085      H1095   1.083       .  S
C1086      C1087   1.409       .  A
C1086      C1091   1.488       .  S
C1087      C1088   1.399       .  A
C1087      F1092   1.357       .  S
C1088      C1089   1.404       .  A
C1088      H1093   1.083       .  S
C1089      C1090   1.408       .  A
C1090      F1094   1.357       .  S
C1091      C1096   1.409       .  A
C1091      C1100   1.405       .  A
C1096      C1097   1.402       .  A
C1096      F1101   1.357       .  S
C1097      C1098   1.404       .  A
C1097      H1102   1.083       .  S
C1098      C1099   1.405       .  A
C1099      C1100   1.396       .  A
C1099      F1103   1.357       .  S
C1100      H1104   1.083       .  S
C1105      C1106   1.399       .  A
C1105      C1110   1.395       .  A
C1105      H1115   1.083       .  S
C1106      C1107   1.413       .  A
C1106      C1111   1.492       .  S
C1107      C1108   1.408       .  A
C1107      F1112   1.357       .  S
C1108      C1109   1.405       .  A
C1108      H1113   1.083       .  S
C1109      C1110   1.415       .  A
C1110      F1114   1.358       .  S
C1111      C1116   1.409       .  A
C1111      C1120   1.404       .  A
C1116      C1117   1.402       .  A
C1116      F1121   1.357       .  S
C1117      C1118   1.406       .  A
C1117      H1122   1.083       .  S
C1118      C1119   1.410       .  A
C1119      C1120   1.401       .  A
C1119      F1123   1.358       .  S
C1120      H1124   1.083       .  S
C1125      C1126   1.405       .  A
C1125      C1130   1.398       .  A
C1125      H1135   1.083       .  S
C1126      C1127   1.413       .  A
C1126      C1131   1.496       .  S
C1127      C1128   1.407       .  A
C1127      F1132   1.357       .  S
C1128      C1129   1.402       .  A
C1128      H1133   1.083       .  S
C1129      C1130   1.406       .  A
C1130      F1134   1.357       .  S
C1131      C1136   1.407       .  A
C1131      C1140   1.409       .  A
C1136      C1137   1.398       .  A
C1136      F1141   1.357       .  S
C1137      C1138   1.407       .  A
C1137      H1142   1.083       .  S
C1138      C1139   1.410       .  A
C1139      C1140   1.406       .  A
C1139      F1143   1.357       .  S
C1140      H1144   1.083       .  S
C1145      C1146   1.404       .  A
C1145      C1150   1.404       .  A
C1145      H1155   1.083       .  S
C1146      C1147   1.406       .  A
C1146      C1151   1.487       .  S
C1147      C1148   1.396       .  A
C1147      F1152   1.357       .  S
C1148      C1149   1.406       .  A
C1148      H1153   1.083       .  S
C1149      C1150   1.416       .  A
C1150      F1154   1.358       .  S
C1151      C1156   1.408       .  A
C1151      C1160   1.405       .  A
C1156      C1157   1.399       .  A
C1156      F1161   1.358       .  S
C1157      C1158   1.403       .  A
C1157      H1162   1.084       .  S
C1158      C1159   1.405       .  A
C1159      C1160   1.402       .  A
C1159      F1163   1.357       .  S
C1160      H1164   1.083       .  S
C1165      C1166   1.403       .  A
C1165      C1170   1.396       .  A
C1165      H1175   1.083       .  S
C1166      C1167   1.411       .  A
C1166      C1171   1.489       .  S
C1167      C1168   1.401       .  A
C1167      F1172   1.357       .  S
C1168      C1169   1.401       .  A
C1168      H1173   1.083       .  S
C1169      C1170   1.410       .  A
C1170      F1174   1.359       .  S
C1171      C1176   1.408       .  A
C1171      C1180   1.407       .  A
C1176      C1177   1.400       .  A
C1176      F1181   1.357       .  S
C1177      C1178   1.405       .  A
C1177      H1182   1.084       .  S
C1178      C1179   1.405       .  A
C1179      C1180   1.400       .  A
C1179      F1183   1.357       .  S
C1180      H1184   1.083       .  S
C1185      C1186   1.398       .  A
C1185      C1190   1.394       .  A
C1185      H1195   1.084       .  S
C1186      C1187   1.410       .  A
C1186      C1191   1.480       .  S
C1187      C1188   1.402       .  A
C1187      F1192   1.357       .  S
C1188      C1189   1.401       .  A
C1188      H1193   1.083       .  S
C1189      C1190   1.414       .  A
C1190      F1194   1.358       .  S
C1191      C1196   1.407       .  A
C1191      C1200   1.402       .  A
C1196      C1197   1.401       .  A
C1196      F1201   1.358       .  S
C1197      C1198   1.404       .  A
C1197      H1202   1.083       .  S
C1198      C1199   1.405       .  A
C1199      C1200   1.397       .  A
C1199      F1203   1.357       .  S
C1200      H1204   1.083       .  S
C1205      C1206   1.402       .  A
C1205      C1210   1.396       .  A
C1205      H1215   1.084       .  S
C1206      C1207   1.402       .  A
C1206      C1211   1.473       .  S
C1207      C1208   1.397       .  A
C1207      F1212   1.357       .  S
C1208      C1209   1.409       .  A
C1208      H1213   1.083       .  S
C1209      C1210   1.410       .  A
C1210      F1214   1.358       .  S
C1211      C1216   1.405       .  A
C1211      C1220   1.401       .  A
C1216      C1217   1.400       .  A
C1216      F1221   1.357       .  S
C1217      C1218   1.403       .  A
C1217      H1222   1.083       .  S
C1218      C1219   1.404       .  A
C1219      C1220   1.394       .  A
C1219      F1223   1.358       .  S
C1220      H1224   1.084       .  S
C1225      C1226   1.408       .  A
C1225      C1230   1.405       .  A
C1225      H1235   1.083       .  S
C1226      C1227   1.409       .  A
C1226      C1231   1.495       .  S
C1227      C1228   1.398       .  A
C1227      F1232   1.357       .  S
C1228      C1229   1.404       .  A
C1228      H1233   1.083       .  S
C1229      C1230   1.408       .  A
C1230      F1234   1.357       .  S
C1231      C1236   1.412       .  A
C1231      C1240   1.403       .  A
C1236      C1237   1.404       .  A
C1236      F1241   1.357       .  S
C1237      C1238   1.402       .  A
C1237      H1242   1.083       .  S
C1238      C1239   1.414       .  A
C1239      C1240   1.402       .  A
C1239      F1243   1.358       .  S
C1240      H1244   1.083       .  S
C1245      C1246   1.401       .  A
C1245      C1250   1.400       .  A
C1245      H1255   1.083       .  S
C1246      C1247   1.403       .  A
C1246      C1251   1.467       .  S
C1247      C1248   1.386       .  A
C1247      F1252   1.358       .  S
C1248      C1249   1.402       .  A
C1248      H1253   1.083       .  S
C1249      C1250   1.411       .  A
C1250      F1254   1.358       .  S
C1251      C1256   1.403       .  A
C1251      C1260   1.401       .  A
C1256      C1257   1.392       .  A
C1256      F1261   1.358       .  S
C1257      C1258   1.400       .  A
C1257      H1262   1.080       .  S
C1258      C1259   1.404       .  A
C1259      C1260   1.397       .  A
C1259      F1263   1.357       .  S
C1260      H1264   1.083       .  S
C1265      C1266   1.402       .  A
C1265      C1270   1.397       .  A
C1265      H1275   1.083       .  S
C1266      C1267   1.412       .  A
C1266      C1271   1.490       .  S
C1267      C1268   1.404       .  A
C1267      F1272   1.357       .  S
C1268      C1269   1.402       .  A
C1268      H1273   1.083       .  S
C1269      C1270   1.411       .  A
C1270      F1274   1.358       .  S
C1271      C1276   1.408       .  A
C1271      C1280   1.406       .  A
C1276      C1277   1.403       .  A
C1276      F1281   1.357       .  S
C1277      C1278   1.406       .  A
C1277      H1282   1.083       .  S
C1278      C1279   1.407       .  A
C1279      C1280   1.401       .  A
C1279      F1283   1.357       .  S
C1280      H1284   1.083       .  S
C1285      C1286   1.401   1_556  A
C1285      C1290   1.402       .  A
C1285      H1295   1.084       .  S
C1286      C1287   1.403       .  A
C1286      C1291   1.489       .  S
C1287      C1288   1.403       .  A
C1287      F1292   1.357       .  S
C1288      C1289   1.412       .  A
C1288      H1293   1.077       .  S
C1289      C1290   1.421   1_554  A
C1290      F1294   1.356       .  S
C1291      C1296   1.407   1_554  A
C1291      C1300   1.406       .  A
C1296      C1297   1.403       .  A
C1296      F1301   1.357       .  S
C1297      C1298   1.404   1_556  A
C1297      H1302   1.084       .  S
C1298      C1299   1.407       .  A
C1299      C1300   1.401       .  A
C1299      F1303   1.358       .  S
C1300      H1304   1.083       .  S
C1305      C1306   1.407       .  A
C1305      C1310   1.400       .  A
C1305      H1315   1.083       .  S
C1306      C1307   1.407       .  A
C1306      C1311   1.489       .  S
C1307      C1308   1.399       .  A
C1307      F1312   1.358       .  S
C1308      C1309   1.407       .  A
C1308      H1313   1.083       .  S
C1309      C1310   1.406       .  A
C1310      F1314   1.356       .  S
C1311      C1316   1.403       .  A
C1311      C1320   1.411       .  A
C1316      C1317   1.394       .  A
C1316      F1321   1.358       .  S
C1317      C1318   1.410       .  A
C1317      H1322   1.084       .  S
C1318      C1319   1.405       .  A
C1319      C1320   1.407       .  A
C1319      F1323   1.357       .  S
C1320      H1324   1.083       .  S
C1325      C1326   1.403       .  A
C1325      C1330   1.399       .  A
C1325      H1335   1.083       .  S
C1326      C1327   1.406       .  A
C1326      C1331   1.482       .  S
C1327      C1328   1.397       .  A
C1327      F1332   1.357       .  S
C1328      C1329   1.405       .  A
C1328      H1333   1.083       .  S
C1329      C1330   1.413       .  A
C1330      F1334   1.358       .  S
C1331      C1336   1.405       .  A
C1331      C1340   1.405       .  A
C1336      C1337   1.396       .  A
C1336      F1341   1.358       .  S
C1337      C1338   1.404       .  A
C1337      H1342   1.083       .  S
C1338      C1339   1.407       .  A
C1339      C1340   1.402       .  A
C1339      F1343   1.357       .  S
C1340      H1344   1.083       .  S
C1345      C1346   1.404       .  A
C1345      C1350   1.401       .  A
C1345      H1355   1.083       .  S
C1346      C1347   1.406       .  A
C1346      C1351   1.485       .  S
C1347      C1348   1.400       .  A
C1347      F1352   1.358       .  S
C1348      C1349   1.407       .  A
C1348      H1353   1.083       .  S
C1349      C1350   1.410       .  A
C1350      F1354   1.356       .  S
C1351      C1356   1.403       .  A
C1351      C1360   1.408       .  A
C1356      C1357   1.396       .  A
C1356      F1361   1.357       .  S
C1357      C1358   1.408       .  A
C1357      H1362   1.084       .  S
C1358      C1359   1.406       .  A
C1359      C1360   1.403       .  A
C1359      F1363   1.358       .  S
C1360      H1364   1.083       .  S
C1365      C1366   1.406       .  A
C1365      C1370   1.404       .  A
C1365      H1375   1.083       .  S
C1366      C1367   1.402       .  A
C1366      C1371   1.484       .  S
C1367      C1368   1.399       .  A
C1367      F1372   1.358       .  S
C1368      C1369   1.409       .  A
C1368      H1373   1.084       .  S
C1369      C1370   1.405       .  A
C1370      F1374   1.357       .  S
C1371      C1376   1.410       .  A
C1371      C1380   1.398       .  A
C1376      C1377   1.406       .  A
C1376      F1381   1.357       .  S
C1377      C1378   1.403       .  A
C1377      H1382   1.083       .  S
C1378      C1379   1.415       .  A
C1379      C1380   1.397       .  A
C1379      F1383   1.358       .  S
C1380      H1384   1.083       .  S
C1385      C1386   1.411       .  A
C1385      C1390   1.410       .  A
C1385      H1395   1.083       .  S
C1386      C1387   1.400       .  A
C1386      C1391   1.489       .  S
C1387      C1388   1.391       .  A
C1387      F1392   1.358       .  S
C1388      C1389   1.412       .  A
C1388      H1393   1.083       .  S
C1389      C1390   1.409       .  A
C1390      F1394   1.357       .  S
C1391      C1396   1.410       .  A
C1391      C1400   1.403       .  A
C1396      C1397   1.401       .  A
C1396      F1401   1.357       .  S
C1397      C1398   1.403       .  A
C1397      H1402   1.083       .  S
C1398      C1399   1.410       .  A
C1399      C1400   1.400       .  A
C1399      F1403   1.357       .  S
C1400      H1404   1.083       .  S
C1405      C1406   1.404       .  A
C1405      C1410   1.399       .  A
C1405      H1415   1.083       .  S
C1406      C1407   1.406       .  A
C1406      C1411   1.483       .  S
C1407      C1408   1.401       .  A
C1407      F1412   1.357       .  S
C1408      C1409   1.404       .  A
C1408      H1413   1.083       .  S
C1409      C1410   1.405       .  A
C1410      F1414   1.358       .  S
C1411      C1416   1.404       .  A
C1411      C1420   1.401       .  A
C1416      C1417   1.405       .  A
C1416      F1421   1.357       .  S
C1417      C1418   1.411       .  A
C1417      H1422   1.083       .  S
C1418      C1419   1.413       .  A
C1419      C1420   1.396       .  A
C1419      F1423   1.358       .  S
C1420      H1424   1.084       .  S
C1425      C1426   1.411       .  A
C1425      C1430   1.405       .  A
C1425      H1435   1.083       .  S
C1426      C1427   1.408       .  A
C1426      C1431   1.498       .  S
C1427      C1428   1.399       .  A
C1427      F1432   1.357       .  S
C1428      C1429   1.407       .  A
C1428      H1433   1.083       .  S
C1429      C1430   1.405       .  A
C1430      F1434   1.357       .  S
C1431      C1436   1.405       .  A
C1431      C1440   1.412       .  A
C1436      C1437   1.398       .  A
C1436      F1441   1.357       .  S
C1437      C1438   1.410       .  A
C1437      H1442   1.083       .  S
C1438      C1439   1.409       .  A
C1439      C1440   1.408       .  A
C1439      F1443   1.357       .  S
C1440      H1444   1.083       .  S
C1445      C1446   1.404       .  A
C1445      C1450   1.399       .  A
C1445      H1455   1.083       .  S
C1446      C1447   1.406       .  A
C1446      C1451   1.479       .  S
C1447      C1448   1.398       .  A
C1447      F1452   1.357       .  S
C1448      C1449   1.402       .  A
C1448      H1453   1.084       .  S
C1449      C1450   1.405       .  A
C1450      F1454   1.357       .  S
C1451      C1456   1.403       .  A
C1451      C1460   1.404       .  A
C1456      C1457   1.399       .  A
C1456      F1461   1.357       .  S
C1457      C1458   1.409       .  A
C1457      H1462   1.083       .  S
C1458      C1459   1.410       .  A
C1459      C1460   1.396       .  A
C1459      F1463   1.358       .  S
C1460      H1464   1.083       .  S
C1465      C1466   1.409       .  A
C1465      C1470   1.402       .  A
C1465      H1475   1.083       .  S
C1466      C1467   1.409       .  A
C1466      C1471   1.494       .  S
C1467      C1468   1.398       .  A
C1467      F1472   1.357       .  S
C1468      C1469   1.403       .  A
C1468      H1473   1.083       .  S
C1469      C1470   1.406       .  A
C1470      F1474   1.358       .  S
C1471      C1476   1.405       .  A
C1471      C1480   1.412       .  A
C1476      C1477   1.395       .  A
C1476      F1481   1.358       .  S
C1477      C1478   1.410       .  A
C1477      H1482   1.084       .  S
C1478      C1479   1.405       .  A
C1479      C1480   1.406       .  A
C1479      F1483   1.357       .  S
C1480      H1484   1.083       .  S
C1485      C1486   1.403       .  A
C1485      C1490   1.397       .  A
C1485      H1495   1.083       .  S
C1486      C1487   1.410       .  A
C1486      C1491   1.491       .  S
C1487      C1488   1.403       .  A
C1487      F1492   1.357       .  S
C1488      C1489   1.406       .  A
C1488      H1493   1.082       .  S
C1489      C1490   1.412       .  A
C1490      F1494   1.357       .  S
C1491      C1496   1.404       .  A
C1491      C1500   1.409       .  A
C1496      C1497   1.397       .  A
C1496      F1501   1.358       .  S
C1497      C1498   1.414       .  A
C1497      H1502   1.083       .  S
C1498      C1499   1.407       .  A
C1499      C1500   1.404       .  A
C1499      F1503   1.357       .  S
C1500      H1504   1.083       .  S
C1505      C1506   1.406       .  A
C1505      C1510   1.397       .  A
C1505      H1515   1.082       .  S
C1506      C1507   1.415       .  A
C1506      C1511   1.500       .  S
C1507      C1508   1.406       .  A
C1507      F1512   1.357       .  S
C1508      C1509   1.403       .  A
C1508      H1513   1.082       .  S
C1509      C1510   1.406       .  A
C1510      F1514   1.357       .  S
C1511      C1516   1.412       .  A
C1511      C1520   1.405       .  A
C1516      C1517   1.402       .  A
C1516      F1521   1.357       .  S
C1517      C1518   1.407       .  A
C1517      H1522   1.083       .  S
C1518      C1519   1.415       .  A
C1519      C1520   1.402       .  A
C1519      F1523   1.357       .  S
C1520      H1524   1.082       .  S
C1525      C1526   1.407       .  A
C1525      C1530   1.400       .  A
C1525      H1535   1.083       .  S
C1526      C1527   1.402       .  A
C1526      C1531   1.479       .  S
C1527      C1528   1.398       .  A
C1527      F1532   1.357       .  S
C1528      C1529   1.405       .  A
C1528      H1533   1.084       .  S
C1529      C1530   1.403       .  A
C1530      F1534   1.358       .  S
C1531      C1536   1.407       .  A
C1531      C1540   1.402       .  A
C1536      C1537   1.399       .  A
C1536      F1541   1.358       .  S
C1537      C1538   1.401       .  A
C1537      H1542   1.083       .  S
C1538      C1539   1.406       .  A
C1539      C1540   1.399       .  A
C1539      F1543   1.357   1_565  S
C1540      H1544   1.083       .  S
C1545      C1546   1.403       .  A
C1545      C1550   1.397       .  A
C1545      H1555   1.083       .  S
C1546      C1547   1.412       .  A
C1546      C1551   1.491       .  S
C1547      C1548   1.405       .  A
C1547      F1552   1.357       .  S
C1548      C1549   1.403       .  A
C1548      H1553   1.083       .  S
C1549      C1550   1.410       .  A
C1550      F1554   1.358       .  S
C1551      C1556   1.409       .  A
C1551      C1560   1.407       .  A
C1556      C1557   1.401       .  A
C1556      F1561   1.358       .  S
C1557      C1558   1.405       .  A
C1557      H1562   1.083       .  S
C1558      C1559   1.405       .  A
C1559      C1560   1.403       .  A
C1559      F1563   1.357       .  S
C1560      H1564   1.083       .  S
C1565      C1566   1.413       .  A
C1565      C1570   1.412       .  A
C1565      H1575   1.083       .  S
C1566      C1567   1.405       .  A
C1566      C1571   1.496       .  S
C1567      C1568   1.396       .  A
C1567      F1572   1.358       .  S
C1568      C1569   1.408       .  A
C1568      H1573   1.083       .  S
C1569      C1570   1.405       .  A
C1570      F1574   1.357       .  S
C1571      C1576   1.410       .  A
C1571      C1580   1.405       .  A
C1576      C1577   1.409       .  A
C1576      F1581   1.357       .  S
C1577      C1578   1.408       .  A
C1577      H1582   1.083       .  S
C1578      C1579   1.407       .  A
C1579      C1580   1.399       .  A
C1579      F1583   1.357       .  S
C1580      H1584   1.083       .  S
C1585      C1586   1.403       .  A
C1585      C1590   1.402       .  A
C1585      H1595   1.083       .  S
C1586      C1587   1.407       .  A
C1586      C1591   1.484       .  S
C1587      C1588   1.394       .  A
C1587      F1592   1.358       .  S
C1588      C1589   1.405       .  A
C1588      H1593   1.083       .  S
C1589      C1590   1.413       .  A
C1590      F1594   1.357       .  S
C1591      C1596   1.409       .  A
C1591      C1600   1.404       .  A
C1596      C1597   1.403       .  A
C1596      F1601   1.358       .  S
C1597      C1598   1.404       .  A
C1597      H1602   1.083       .  S
C1598      C1599   1.404       .  A
C1599      C1600   1.395       .  A
C1599      F1603   1.358       .  S
C1600      H1604   1.083       .  S
C1605      C1606   1.406       .  A
C1605      C1610   1.403       .  A
C1605      H1615   1.083       .  S
C1606      C1607   1.411       .  A
C1606      C1611   1.493       .  S
C1607      C1608   1.397       .  A
C1607      F1612   1.357       .  S
C1608      C1609   1.402       .  A
C1608      H1613   1.084       .  S
C1609      C1610   1.409       .  A
C1610      F1614   1.356       .  S
C1611      C1616   1.415       .  A
C1611      C1620   1.401       .  A
C1616      C1617   1.410       .  A
C1616      F1621   1.357       .  S
C1617      C1618   1.404       .  A
C1617      H1622   1.083       .  S
C1618      C1619   1.409       .  A
C1619      C1620   1.391       .  A
C1619      F1623   1.357       .  S
C1620      H1624   1.083       .  S
C1625      C1626   1.399       .  A
C1625      C1630   1.400       .  A
C1625      H1635   1.083       .  S
C1626      C1627   1.404       .  A
C1626      C1631   1.473       .  S
C1627      C1628   1.395       .  A
C1627      F1632   1.358       .  S
C1628      C1629   1.405       .  A
C1628      H1633   1.083       .  S
C1629      C1630   1.414       .  A
C1630      F1634   1.357       .  S
C1631      C1636   1.404       .  A
C1631      C1640   1.403       .  A
C1636      C1637   1.396       .  A
C1636      F1641   1.358       .  S
C1637      C1638   1.402       .  A
C1637      H1642   1.083       .  S
C1638      C1639   1.405       .  A
C1639      C1640   1.399       .  A
C1639      F1643   1.357       .  S
C1640      H1644   1.083       .  S
C1645      C1646   1.404       .  A
C1645      C1650   1.401       .  A
C1645      H1655   1.083   1_655  S
C1646      C1647   1.411       .  A
C1646      C1651   1.505       .  S
C1647      C1648   1.414       .  A
C1647      F1652   1.357       .  S
C1648      C1649   1.413       .  A
C1648      H1653   1.080       .  S
C1649      C1650   1.417       .  A
C1650      F1654   1.356   1_655  S
C1651      C1656   1.411       .  A
C1651      C1660   1.404       .  A
C1656      C1657   1.416       .  A
C1656      F1661   1.357       .  S
C1657      C1658   1.415       .  A
C1657      H1662   1.083       .  S
C1658      C1659   1.416       .  A
C1659      C1660   1.401       .  A
C1659      F1663   1.357       .  S
C1660      H1664   1.083       .  S
C1665      C1666   1.410       .  A
C1665      C1670   1.408       .  A
C1665      H1675   1.083       .  S
C1666      C1667   1.402       .  A
C1666      C1671   1.488       .  S
C1667      C1668   1.398       .  A
C1667      F1672   1.358       .  S
C1668      C1669   1.412       .  A
C1668      H1673   1.084       .  S
C1669      C1670   1.405       .  A
C1670      F1674   1.356       .  S
C1671      C1676   1.406       .  A
C1671      C1680   1.405       .  A
C1676      C1677   1.403       .  A
C1676      F1681   1.357       .  S
C1677      C1678   1.406       .  A
C1677      H1682   1.083       .  S
C1678      C1679   1.407       .  A
C1679      C1680   1.402       .  A
C1679      F1683   1.358       .  S
C1680      H1684   1.083       .  S
C1685      C1686   1.404       .  A
C1685      C1690   1.400       .  A
C1685      H1695   1.083       .  S
C1686      C1687   1.410       .  A
C1686      C1691   1.492       .  S
C1687      C1688   1.404       .  A
C1687      F1692   1.357       .  S
C1688      C1689   1.404       .  A
C1688      H1693   1.083       .  S
C1689      C1690   1.410       .  A
C1690      F1694   1.358       .  S
C1691      C1696   1.412       .  A
C1691      C1700   1.400       .  A
C1696      C1697   1.407       .  A
C1696      F1701   1.357       .  S
C1697      C1698   1.406       .  A
C1697      H1702   1.083       .  S
C1698      C1699   1.416       .  A
C1699      C1700   1.397       .  A
C1699      F1703   1.358       .  S
C1700      H1704   1.083       .  S
C1705      C1706   1.401       .  A
C1705      C1710   1.395       .  A
C1705      H1715   1.083       .  S
C1706      C1707   1.412       .  A
C1706      C1711   1.482       .  S
C1707      C1708   1.400       .  A
C1707      F1712   1.358       .  S
C1708      C1709   1.400       .  A
C1708      H1713   1.083       .  S
C1709      C1710   1.405       .  A
C1710      F1714   1.358       .  S
C1711      C1716   1.405       .  A
C1711      C1720   1.404       .  A
C1716      C1717   1.396       .  A
C1716      F1721   1.358       .  S
C1717      C1718   1.404       .  A
C1717      H1722   1.083       .  S
C1718      C1719   1.405       .  A
C1719      C1720   1.399       .  A
C1719      F1723   1.358       .  S
C1720      H1724   1.083       .  S
C1725      C1726   1.404       .  A
C1725      C1730   1.396       .  A
C1725      H1735   1.083       .  S
C1726      C1727   1.406       .  A
C1726      C1731   1.478       .  S
C1727      C1728   1.397       .  A
C1727      F1732   1.358       .  S
C1728      C1729   1.402       .  A
C1728      H1733   1.084       .  S
C1729      C1730   1.402       .  A
C1730      F1734   1.358       .  S
C1731      C1736   1.406       .  A
C1731      C1740   1.401       .  A
C1736      C1737   1.393       .  A
C1736      F1741   1.358       .  S
C1737      C1738   1.404       .  A
C1737      H1742   1.083       .  S
C1738      C1739   1.413       .  A
C1739      C1740   1.399       .  A
C1739      F1743   1.358       .  S
C1740      H1744   1.083       .  S
C1745      C1746   1.404       .  A
C1745      C1750   1.400       .  A
C1745      H1755   1.083       .  S
C1746      C1747   1.408       .  A
C1746      C1751   1.492       .  S
C1747      C1748   1.404       .  A
C1747      F1752   1.357       .  S
C1748      C1749   1.410       .  A
C1748      H1753   1.083       .  S
C1749      C1750   1.414       .  A
C1750      F1754   1.357       .  S
C1751      C1756   1.408       .  A
C1751      C1760   1.405       .  A
C1756      C1757   1.400       .  A
C1756      F1761   1.358       .  S
C1757      C1758   1.407       .  A
C1757      H1762   1.082       .  S
C1758      C1759   1.408       .  A
C1759      C1760   1.403       .  A
C1759      F1763   1.352       .  S
C1760      H1764   1.083       .  S
C1765      C1766   1.410       .  A
C1765      C1770   1.409       .  A
C1765      H1775   1.083       .  S
C1766      C1767   1.404       .  A
C1766      C1771   1.496       .  S
C1767      C1768   1.397       .  A
C1767      F1772   1.358       .  S
C1768      C1769   1.412       .  A
C1768      H1773   1.083       .  S
C1769      C1770   1.410       .  A
C1770      F1774   1.357       .  S
C1771      C1776   1.408       .  A
C1771      C1780   1.409       .  A
C1776      C1777   1.402       .  A
C1776      F1781   1.358       .  S
C1777      C1778   1.408       .  A
C1777      H1782   1.083       .  S
C1778      C1779   1.405       .  A
C1779      C1780   1.402       .  A
C1779      F1783   1.357       .  S
C1780      H1784   1.083       .  S
C1785      C1786   1.407       .  A
C1785      C1790   1.402       .  A
C1785      H1795   1.083       .  S
C1786      C1787   1.410       .  A
C1786      C1791   1.495       .  S
C1787      C1788   1.402       .  A
C1787      F1792   1.357       .  S
C1788      C1789   1.404       .  A
C1788      H1793   1.083       .  S
C1789      C1790   1.407       .  A
C1790      F1794   1.357       .  S
C1791      C1796   1.413       .  A
C1791      C1800   1.405       .  A
C1796      C1797   1.404       .  A
C1796      F1801   1.357       .  S
C1797      C1798   1.402       .  A
C1797      H1802   1.083       .  S
C1798      C1799   1.409       .  A
C1799      C1800   1.400       .  A
C1799      F1803   1.358       .  S
C1800      H1804   1.083       .  S
C1805      C1806   1.405       .  A
C1805      C1810   1.402       .  A
C1805      H1815   1.083       .  S
C1806      C1807   1.411       .  A
C1806      C1811   1.505       .  S
C1807      C1808   1.413       .  A
C1807      F1812   1.357       .  S
C1808      C1809   1.411       .  A
C1808      H1813   1.083       .  S
C1809      C1810   1.416       .  A
C1810      F1814   1.358       .  S
C1811      C1816   1.411       .  A
C1811      C1820   1.405       .  A
C1816      C1817   1.413       .  A
C1816      F1821   1.357       .  S
C1817      C1818   1.411       .  A
C1817      H1822   1.081       .  S
C1818      C1819   1.415       .  A
C1819      C1820   1.401       .  A
C1819      F1823   1.356   1_655  S
C1820      H1824   1.083   1_655  S
C1825      C1826   1.401       .  A
C1825      C1830   1.392       .  A
C1825      H1835   1.084       .  S
C1826      C1827   1.406       .  A
C1826      C1831   1.481       .  S
C1827      C1828   1.403       .  A
C1827      F1832   1.357       .  S
C1828      C1829   1.410       .  A
C1828      H1833   1.083       .  S
C1829      C1830   1.411       .  A
C1830      F1834   1.358       .  S
C1831      C1836   1.408       .  A
C1831      C1840   1.404       .  A
C1836      C1837   1.402       .  A
C1836      F1841   1.358       .  S
C1837      C1838   1.403       .  A
C1837      H1842   1.083       .  S
C1838      C1839   1.403       .  A
C1839      C1840   1.395       .  A
C1839      F1843   1.358   1_565  S
C1840      H1844   1.083       .  S
C1845      C1846   1.403       .  A
C1845      C1850   1.400       .  A
C1845      H1855   1.083       .  S
C1846      C1847   1.403       .  A
C1846      C1851   1.475       .  S
C1847      C1848   1.396       .  A
C1847      F1852   1.357       .  S
C1848      C1849   1.403       .  A
C1848      H1853   1.083       .  S
C1849      C1850   1.409       .  A
C1850      F1854   1.357       .  S
C1851      C1856   1.405       .  A
C1851      C1860   1.402       .  A
C1856      C1857   1.395       .  A
C1856      F1861   1.358       .  S
C1857      C1858   1.404       .  A
C1857      H1862   1.084       .  S
C1858      C1859   1.410       .  A
C1859      C1860   1.400       .  A
C1859      F1863   1.358       .  S
C1860      H1864   1.083       .  S
C1865      C1866   1.403       .  A
C1865      C1870   1.392       .  A
C1865      H1875   1.083       .  S
C1866      C1867   1.410       .  A
C1866      C1871   1.486       .  S
C1867      C1868   1.404       .  A
C1867      F1872   1.357       .  S
C1868      C1869   1.404       .  A
C1868      H1873   1.080       .  S
C1869      C1870   1.405       .  A
C1870      F1874   1.357       .  S
C1871      C1876   1.406       .  A
C1871      C1880   1.406       .  A
C1876      C1877   1.393       .  A
C1876      F1881   1.358       .  S
C1877      C1878   1.406       .  A
C1877      H1882   1.083       .  S
C1878      C1879   1.411       .  A
C1879      C1880   1.405       .  A
C1879      F1883   1.357       .  S
C1880      H1884   1.083       .  S
C1885      C1886   1.402       .  A
C1885      C1890   1.397       .  A
C1885      H1895   1.084       .  S
C1886      C1887   1.407       .  A
C1886      C1891   1.479       .  S
C1887      C1888   1.402       .  A
C1887      F1892   1.357       .  S
C1888      C1889   1.405       .  A
C1888      H1893   1.083       .  S
C1889      C1890   1.407       .  A
C1890      F1894   1.357       .  S
C1891      C1896   1.404       .  A
C1891      C1900   1.403       .  A
C1896      C1897   1.401       .  A
C1896      F1901   1.357       .  S
C1897      C1898   1.410       .  A
C1897      H1902   1.083       .  S
C1898      C1899   1.409       .  A
C1899      C1900   1.397       .  A
C1899      F1903   1.357       .  S
C1900      H1904   1.084       .  S
C1905      C1906   1.403       .  A
C1905      C1910   1.396       .  A
C1905      H1915   1.083       .  S
C1906      C1907   1.407       .  A
C1906      C1911   1.480       .  S
C1907      C1908   1.399       .  A
C1907      F1912   1.358       .  S
C1908      C1909   1.404       .  A
C1908      H1913   1.083       .  S
C1909      C1910   1.406       .  A
C1910      F1914   1.358   1_455  S
C1911      C1916   1.402       .  A
C1911      C1920   1.407       .  A
C1916      C1917   1.393       .  A
C1916      F1921   1.358       .  S
C1917      C1918   1.409       .  A
C1917      H1922   1.084       .  S
C1918      C1919   1.407       .  A
C1919      C1920   1.401       .  A
C1919      F1923   1.357       .  S
C1920      H1924   1.083       .  S
C1925      C1926   1.408       .  A
C1925      C1930   1.408       .  A
C1925      H1935   1.083   1_655  S
C1926      C1927   1.406       .  A
C1926      C1931   1.493       .  S
C1927      C1928   1.397       .  A
C1927      F1932   1.358       .  S
C1928      C1929   1.406       .  A
C1928      H1933   1.083       .  S
C1929      C1930   1.409       .  A
C1930      F1934   1.353   1_655  S
C1931      C1936   1.408       .  A
C1931      C1940   1.405   1_655  A
C1936      C1937   1.405       .  A
C1936      F1941   1.357       .  S
C1937      C1938   1.409       .  A
C1937      H1942   1.083       .  S
C1938      C1939   1.411   1_655  A
C1939      C1940   1.400       .  A
C1939      F1943   1.358       .  S
C1940      H1944   1.083       .  S
C1945      C1946   1.409       .  A
C1945      C1950   1.407       .  A
C1945      H1955   1.083       .  S
C1946      C1947   1.402       .  A
C1946      C1951   1.488       .  S
C1947      C1948   1.400       .  A
C1947      F1952   1.358       .  S
C1948      C1949   1.410       .  A
C1948      H1953   1.084       .  S
C1949      C1950   1.405       .  A
C1950      F1954   1.357       .  S
C1951      C1956   1.408       .  A
C1951      C1960   1.403       .  A
C1956      C1957   1.406       .  A
C1956      F1961   1.357       .  S
C1957      C1958   1.407       .  A
C1957      H1962   1.083       .  S
C1958      C1959   1.408       .  A
C1959      C1960   1.398       .  A
C1959      F1963   1.358       .  S
C1960      H1964   1.083       .  S
C1965      C1966   1.402       .  A
C1965      C1970   1.400       .  A
C1965      H1975   1.083       .  S
C1966      C1967   1.410       .  A
C1966      C1971   1.486       .  S
C1967      C1968   1.403       .  A
C1967      F1972   1.357       .  S
C1968      C1969   1.401       .  A
C1968      H1973   1.083       .  S
C1969      C1970   1.407       .  A
C1970      F1974   1.358       .  S
C1971      C1976   1.401       .  A
C1971      C1980   1.409       .  A
C1976      C1977   1.398       .  A
C1976      F1981   1.357       .  S
C1977      C1978   1.409       .  A
C1977      H1982   1.084       .  S
C1978      C1979   1.405       .  A
C1979      C1980   1.406       .  A
C1979      F1983   1.357       .  S
C1980      H1984   1.083       .  S
C1985      C1986   1.405       .  A
C1985      C1990   1.403       .  A
C1985      H1995   1.083       .  S
C1986      C1987   1.412   1_655  A
C1986      C1991   1.501       .  S
C1987      C1988   1.407   1_455  A
C1987      F1992   1.357       .  S
C1988      C1989   1.406       .  A
C1988      H1993   1.082   1_655  S
C1989      C1990   1.414       .  A
C1990      F1994   1.357       .  S
C1991      C1996   1.412       .  A
C1991      C2000   1.404       .  A
C1996      C1997   1.408       .  A
C1996      F2001   1.357       .  S
C1997      C1998   1.408       .  A
C1997      H2002   1.083       .  S
C1998      C1999   1.416       .  A
C1999      C2000   1.402       .  A
C1999      F2003   1.358       .  S
C2000      H2004   1.083       .  S
C2005      C2006   1.405       .  A
C2005      C2010   1.397       .  A
C2005      H2015   1.083       .  S
C2006      C2007   1.409       .  A
C2006      C2011   1.488       .  S
C2007      C2008   1.401       .  A
C2007      F2012   1.357       .  S
C2008      C2009   1.403       .  A
C2008      H2013   1.083       .  S
C2009      C2010   1.406       .  A
C2010      F2014   1.358   1_565  S
C2011      C2016   1.405       .  A
C2011      C2020   1.409       .  A
C2016      C2017   1.396       .  A
C2016      F2021   1.358       .  S
C2017      C2018   1.409       .  A
C2017      H2022   1.084       .  S
C2018      C2019   1.406       .  A
C2019      C2020   1.403       .  A
C2019      F2023   1.357       .  S
C2020      H2024   1.083       .  S
C2025      C2026   1.404       .  A
C2025      C2030   1.398       .  A
C2025      H2035   1.083       .  S
C2026      C2027   1.404       .  A
C2026      C2031   1.482       .  S
C2027      C2028   1.399       .  A
C2027      F2032   1.358       .  S
C2028      C2029   1.410       .  A
C2028      H2033   1.083       .  S
C2029      C2030   1.410       .  A
C2030      F2034   1.357       .  S
C2031      C2036   1.406       .  A
C2031      C2040   1.405       .  A
C2036      C2037   1.399       .  A
C2036      F2041   1.357       .  S
C2037      C2038   1.403       .  A
C2037      H2042   1.083       .  S
C2038      C2039   1.405       .  A
C2039      C2040   1.399       .  A
C2039      F2043   1.358       .  S
C2040      H2044   1.083       .  S
C2045      C2046   1.407       .  A
C2045      C2050   1.407       .  A
C2045      H2055   1.083       .  S
C2046      C2047   1.404       .  A
C2046      C2051   1.487       .  S
C2047      C2048   1.394       .  A
C2047      F2052   1.358       .  S
C2048      C2049   1.408       .  A
C2048      H2053   1.083       .  S
C2049      C2050   1.409       .  A
C2050      F2054   1.354       .  S
C2051      C2056   1.406       .  A
C2051      C2060   1.403       .  A
C2056      C2057   1.405       .  A
C2056      F2061   1.357       .  S
C2057      C2058   1.408       .  A
C2057      H2062   1.083       .  S
C2058      C2059   1.412       .  A
C2059      C2060   1.398       .  A
C2059      F2063   1.358       .  S
C2060      H2064   1.084       .  S
C2065      C2066   1.403       .  A
C2065      C2070   1.398       .  A
C2065      H2075   1.083       .  S
C2066      C2067   1.402       .  A
C2066      C2071   1.473       .  S
C2067      C2068   1.394       .  A
C2067      F2072   1.357       .  S
C2068      C2069   1.402       .  A
C2068      H2073   1.081       .  S
C2069      C2070   1.405       .  A
C2070      F2074   1.358       .  S
C2071      C2076   1.405       .  A
C2071      C2080   1.398       .  A
C2076      C2077   1.396       .  A
C2076      F2081   1.358       .  S
C2077      C2078   1.407       .  A
C2077      H2082   1.083       .  S
C2078      C2079   1.414       .  A
C2079      C2080   1.398       .  A
C2079      F2083   1.357       .  S
C2080      H2084   1.083       .  S
C2085      C2086   1.403       .  A
C2085      C2090   1.396       .  A
C2085      H2095   1.083       .  S
C2086      C2087   1.410       .  A
C2086      C2091   1.482       .  S
C2087      C2088   1.399       .  A
C2087      F2092   1.357       .  S
C2088      C2089   1.399       .  A
C2088      H2093   1.083       .  S
C2089      C2090   1.405       .  A
C2090      F2094   1.357       .  S
C2091      C2096   1.406       .  A
C2091      C2100   1.405       .  A
C2096      C2097   1.397       .  A
C2096      F2101   1.358       .  S
C2097      C2098   1.405       .  A
C2097      H2102   1.083       .  S
C2098      C2099   1.406       .  A
C2099      C2100   1.398       .  A
C2099      F2103   1.356       .  S
C2100      H2104   1.083       .  S
C2105      C2106   1.404   1_554  A
C2105      C2110   1.395       .  A
C2105      H2115   1.083       .  S
C2106      C2107   1.410       .  A
C2106      C2111   1.492       .  S
C2107      C2108   1.404       .  A
C2107      F2112   1.357       .  S
C2108      C2109   1.407   1_556  A
C2108      H2113   1.083       .  S
C2109      C2110   1.413       .  A
C2110      F2114   1.358       .  S
C2111      C2116   1.410       .  A
C2111      C2120   1.407   1_556  A
C2116      C2117   1.397       .  A
C2116      F2121   1.358       .  S
C2117      C2118   1.402       .  A
C2117      H2122   1.083       .  S
C2118      C2119   1.406   1_556  A
C2119      C2120   1.402       .  A
C2119      F2123   1.353       .  S
C2120      H2124   1.082       .  S
C2125      C2126   1.401       .  A
C2125      C2130   1.399       .  A
C2125      H2135   1.083       .  S
C2126      C2127   1.409       .  A
C2126      C2131   1.481       .  S
C2127      C2128   1.400       .  A
C2127      F2132   1.358       .  S
C2128      C2129   1.401       .  A
C2128      H2133   1.083       .  S
C2129      C2130   1.408       .  A
C2130      F2134   1.358       .  S
C2131      C2136   1.405       .  A
C2131      C2140   1.404       .  A
C2136      C2137   1.396       .  A
C2136      F2141   1.358       .  S
C2137      C2138   1.403       .  A
C2137      H2142   1.084       .  S
C2138      C2139   1.407       .  A
C2139      C2140   1.403       .  A
C2139      F2143   1.357       .  S
C2140      H2144   1.083       .  S
C2145      C2146   1.409       .  A
C2145      C2150   1.406       .  A
C2145      H2155   1.083       .  S
C2146      C2147   1.401       .  A
C2146      C2151   1.481       .  S
C2147      C2148   1.393       .  A
C2147      F2152   1.357       .  S
C2148      C2149   1.406       .  A
C2148      H2153   1.084       .  S
C2149      C2150   1.405       .  A
C2150      F2154   1.357       .  S
C2151      C2156   1.409       .  A
C2151      C2160   1.401       .  A
C2156      C2157   1.398       .  A
C2156      F2161   1.358       .  S
C2157      C2158   1.401       .  A
C2157      H2162   1.083       .  S
C2158      C2159   1.408       .  A
C2159      C2160   1.400       .  A
C2159      F2163   1.357       .  S
C2160      H2164   1.083       .  S
C2165      C2166   1.408   1_556  A
C2165      C2170   1.408       .  A
C2165      H2175   1.083       .  S
C2166      C2167   1.407       .  A
C2166      C2171   1.500       .  S
C2167      C2168   1.399       .  A
C2167      F2172   1.358       .  S
C2168      C2169   1.411       .  A
C2168      H2173   1.082       .  S
C2169      C2170   1.412   1_554  A
C2170      F2174   1.354       .  S
C2171      C2176   1.409       .  A
C2171      C2180   1.407       .  A
C2176      C2177   1.407       .  A
C2176      F2181   1.357       .  S
C2177      C2178   1.411       .  A
C2177      H2182   1.083       .  S
C2178      C2179   1.413       .  A
C2179      C2180   1.401       .  A
C2179      F2183   1.357       .  S
C2180      H2184   1.083       .  S
C2185      C2186   1.403       .  A
C2185      C2190   1.396       .  A
C2185      H2195   1.084       .  S
C2186      C2187   1.406       .  A
C2186      C2191   1.479       .  S
C2187      C2188   1.399       .  A
C2187      F2192   1.357       .  S
C2188      C2189   1.403       .  A
C2188      H2193   1.083       .  S
C2189      C2190   1.406       .  A
C2190      F2194   1.358       .  S
C2191      C2196   1.403       .  A
C2191      C2200   1.402       .  A
C2196      C2197   1.398       .  A
C2196      F2201   1.357       .  S
C2197      C2198   1.408       .  A
C2197      H2202   1.083       .  S
C2198      C2199   1.412       .  A
C2199      C2200   1.395       .  A
C2199      F2203   1.358       .  S
C2200      H2204   1.084       .  S
C2205      C2206   1.400       .  A
C2205      C2210   1.395       .  A
C2205      H2215   1.083       .  S
C2206      C2207   1.411       .  A
C2206      C2211   1.484       .  S
C2207      C2208   1.406       .  A
C2207      F2212   1.357       .  S
C2208      C2209   1.403       .  A
C2208      H2213   1.083       .  S
C2209      C2210   1.407       .  A
C2210      F2214   1.358       .  S
C2211      C2216   1.405       .  A
C2211      C2220   1.406       .  A
C2216      C2217   1.398       .  A
C2216      F2221   1.357       .  S
C2217      C2218   1.405       .  A
C2217      H2222   1.083       .  S
C2218      C2219   1.406       .  A
C2219      C2220   1.403       .  A
C2219      F2223   1.357       .  S
C2220      H2224   1.083       .  S
C2225      C2226   1.406   1_554  A
C2225      C2230   1.406       .  A
C2225      H2235   1.083       .  S
C2226      C2227   1.408       .  A
C2226      C2231   1.497       .  S
C2227      C2228   1.398       .  A
C2227      F2232   1.358       .  S
C2228      C2229   1.408       .  A
C2228      H2233   1.082       .  S
C2229      C2230   1.412   1_556  A
C2230      F2234   1.352       .  S
C2231      C2236   1.411       .  A
C2231      C2240   1.402       .  A
C2236      C2237   1.409       .  A
C2236      F2241   1.357       .  S
C2237      C2238   1.410       .  A
C2237      H2242   1.083       .  S
C2238      C2239   1.414       .  A
C2239      C2240   1.393       .  A
C2239      F2243   1.357       .  S
C2240      H2244   1.083       .  S
