geometry optimzed in LAMMPS
_audit_creation_date              2020-12-01 
_audit_creation_method            'lammps2cif' 
_symmetry_space_group_name_H-M    'P1' 
_symmetry_Int_Tables_number       1 
_symmetry_cell_setting            triclinic 
loop_ 
_symmetry_equiv_pos_as_xyz 
  x,y,z 
_cell_length_a                    49.58769811 
_cell_length_b                    49.71956667628993 
_cell_length_c                    49.3975692650983 
_cell_angle_alpha                 90.13017659472756 
_cell_angle_beta                  90.09866031400854 
_cell_angle_gamma                 89.99545703428004 
loop_ 
_atom_site_label 
_atom_site_type_symbol 
_atom_site_fract_x 
_atom_site_fract_y 
_atom_site_fract_z 
_atom_site_charge 
O1          O  0.80826330  0.53337316  0.77015977    -0.71800
O2          O  0.77003518  0.47430466  0.81078295    -0.72700
O3          O  0.80998151  0.47633954  0.76898626    -0.61400
O4          O  0.76878466  0.53136821  0.81205406    -0.69800
O5          O  0.73659990  0.53161548  0.78076103    -0.69300
O6          O  0.77751819  0.47632070  0.73800752    -0.60600
O7          O  0.73807469  0.47479992  0.77929391    -0.73100
O8          O  0.77569159  0.53303925  0.73926835    -0.71900
Cu9        Cu  0.79044459  0.50385554  0.79162293     1.04600
Cu10       Cu  0.75587356  0.50391771  0.75830534     1.04300
C11         C  0.79798727  0.54232105  0.74820003     0.94400
C12         C  0.74774538  0.46540492  0.80129635     0.93600
C13         C  0.80030258  0.46778051  0.74658895     0.85700
C14         C  0.74623166  0.54014541  0.80321298     0.92000
O15         O  0.51584717  0.78200696  0.72525158    -0.71800
O16         O  0.46302941  0.73628922  0.76662587    -0.72700
O17         O  0.45897611  0.77725955  0.72731312    -0.61400
O18         O  0.52006658  0.74027264  0.76375569    -0.69800
O19         O  0.51980796  0.77036060  0.79703359    -0.69300
O20         O  0.45785349  0.80855316  0.75944386    -0.60600
O21         O  0.46258660  0.76729881  0.79905374    -0.73100
O22         O  0.51478675  0.81240353  0.75824901    -0.71900
Cu23       Cu  0.48951499  0.75790096  0.74460427     1.04600
Cu24       Cu  0.48872272  0.79072008  0.77963314     1.04300
C25         C  0.52356634  0.80445625  0.73537441     0.94400
C26         C  0.45444597  0.74489783  0.78947306     0.93600
C27         C  0.44883011  0.79864371  0.73725378     0.85700
C28         C  0.52965796  0.74919775  0.78597026     0.92000
O29         O  0.76735716  0.81666364  0.50176960    -0.71800
O30         O  0.79400834  0.77073993  0.44025383    -0.72700
O31         O  0.75772391  0.81472953  0.44533796    -0.61400
O32         O  0.80412064  0.77288505  0.49677325    -0.69800
O33         O  0.77063118  0.74401289  0.50322717    -0.69300
O34         O  0.72405099  0.78592327  0.45124625    -0.60600
O35         O  0.76035462  0.74201044  0.44660081    -0.73100
O36         O  0.73400845  0.78753672  0.50781206    -0.71900
Cu37       Cu  0.78198814  0.79473133  0.47076320     1.04600
Cu38       Cu  0.74609306  0.76386269  0.47745761     1.04300
C39         C  0.74623028  0.80920717  0.51444860     0.94400
C40         C  0.78148415  0.74913524  0.43382248     0.93600
C41         C  0.73366345  0.80711924  0.44024057     0.85700
C42         C  0.79469388  0.75193317  0.50825454     0.92000
N43         N  0.29109316  0.85046479  0.36174579    -0.26100
N44         N  0.27820426  0.87325877  0.36643551    -0.34000
C45         C  0.26081959  0.86958941  0.38701542     0.02200
C46         C  0.26308049  0.84328832  0.39581741     0.08300
C47         C  0.28243760  0.83173902  0.37925012    -0.04800
H48         H  0.24778122  0.88502836  0.39521128     0.08900
H49         H  0.28964843  0.81121802  0.37961709     0.02900
Cu50       Cu  0.28587451  0.90822770  0.34495026     0.44200
Cu51       Cu  0.31965570  0.84559954  0.33159981     0.42000
Cu52       Cu  0.33625108  0.90360765  0.29110483     0.43900
N53         N  0.29903887  0.94065500  0.32213474    -0.33500
N54         N  0.31738078  0.93908420  0.30277065    -0.27700
C55         C  0.32249941  0.96397746  0.29345185    -0.03800
C56         C  0.30665523  0.98202480  0.30765126     0.08400
C57         C  0.29199234  0.96654436  0.32558974     0.02200
H58         H  0.33732597  0.96863591  0.27812336     0.09800
H59         H  0.27798650  0.97362768  0.34078371     0.08900
N60         N  0.35282996  0.86576273  0.28470778    -0.34900
N61         N  0.34671630  0.84466422  0.29972991    -0.27100
C62         C  0.36105585  0.82337250  0.29117468    -0.02400
C63         C  0.37698549  0.83134653  0.26974324     0.06300
C64         C  0.37129539  0.85841393  0.26613469     0.04400
H65         H  0.36026011  0.80358371  0.30020644     0.09500
H66         H  0.38020384  0.87193438  0.25154939     0.08300
N67         N  0.29877678  0.14781135  0.35183833    -0.26100
N68         N  0.28407802  0.12592096  0.35541371    -0.34000
C69         C  0.26499200  0.13091349  0.37398205     0.02200
C70         C  0.26766456  0.15715560  0.38267043     0.08300
C71         C  0.28934358  0.16739770  0.36822098    -0.04800
H72         H  0.25022926  0.11639002  0.38074580     0.08900
H73         H  0.29757121  0.18751541  0.36932687     0.10100
Cu74       Cu  0.29035711  0.08974065  0.33570563     0.44200
Cu75       Cu  0.33044675  0.14952749  0.32420757     0.42000
Cu76       Cu  0.34206210  0.08688402  0.28603886     0.43900
N77         N  0.30141161  0.05443549  0.31653964    -0.33500
N78         N  0.32060115  0.05325089  0.29807401    -0.27700
C79         C  0.32471038  0.02737707  0.29116741    -0.03800
C80         C  0.30730135  0.01157289  0.30616954     0.08400
C81         C  0.29277231  0.02940761  0.32195931     0.02200
H82         H  0.34010322  0.02053584  0.27726993     0.09800
H83         H  0.27790407  0.02452264  0.33717398     0.08900
N84         N  0.36264053  0.12256962  0.27963259    -0.34900
N85         N  0.35894756  0.14504826  0.29355040    -0.27100
C86         C  0.37594158  0.16395047  0.28411364    -0.02400
C87         C  0.39094939  0.15276284  0.26325969     0.06300
C88         C  0.38193778  0.12659789  0.26102103     0.04400
H89         H  0.37698511  0.18432603  0.29174629     0.09500
H90         H  0.38891322  0.11151185  0.24685252     0.08300
O91         O  0.45094313  0.18963990  0.21219368    -0.71800
O92         O  0.50725409  0.22359280  0.16468660    -0.72700
O93         O  0.50836357  0.18994935  0.21165680    -0.61400
O94         O  0.44998930  0.22327698  0.16552159    -0.69800
O95         O  0.45058104  0.25923640  0.19219811    -0.69300
O96         O  0.50808167  0.22605421  0.23816471    -0.60600
O97         O  0.50765656  0.25930898  0.19171347    -0.73100
O98         O  0.45088385  0.22581649  0.23859755    -0.71900
Cu99       Cu  0.47914096  0.20529564  0.18759239     1.04600
Cu100      Cu  0.47930569  0.24381820  0.21606853     1.04300
C101        C  0.44197861  0.20240468  0.23280979     0.94400
C102        C  0.51626813  0.24691566  0.17073205     0.93600
C103        C  0.51731413  0.20282124  0.23227244     0.85700
C104        C  0.44127156  0.24671326  0.17158517     0.92000
N105        N  0.64554253  0.84603102  0.36485488    -0.26100
N106        N  0.66104284  0.86707171  0.37012334    -0.34000
C107        C  0.68038854  0.85969607  0.38770667     0.02200
C108        C  0.67688080  0.83273016  0.39385227     0.08300
C109        C  0.65454977  0.82478875  0.37909120    -0.04800
H110        H  0.69567269  0.87314692  0.39553702     0.08900
H111        H  0.64566138  0.80492131  0.37849069     0.10100
Cu112      Cu  0.65558281  0.90519681  0.35367200     0.44200
Cu113      Cu  0.61346432  0.84654366  0.33784345     0.42000
Cu114      Cu  0.60420779  0.90933204  0.30268127     0.43900
N115        N  0.64522123  0.94097240  0.33450649    -0.33500
N116        N  0.62653678  0.94206725  0.31543703    -0.27700
C117        C  0.62336627  0.96767773  0.30752114    -0.03800
C118        C  0.64076579  0.98363738  0.32240447     0.08400
C119        C  0.65439704  0.96606214  0.33933761     0.02200
H120        H  0.60871610  0.97425572  0.29269844     0.09800
H121        H  0.66929250  0.97117989  0.35452146     0.08900
N122        N  0.58206953  0.87509783  0.29444083    -0.34900
N123        N  0.58499993  0.85215822  0.30758171    -0.27100
C124        C  0.56807941  0.83381681  0.29691177    -0.02400
C125        C  0.55393449  0.84590733  0.27599316     0.06300
C126        C  0.56332169  0.87200877  0.27503092     0.04400
H127        H  0.56695967  0.81306589  0.30332521     0.09500
H128        H  0.55737043  0.88750065  0.26088111     0.08300
N129        N  0.65340855  0.15122968  0.36101795    -0.26100
N130        N  0.66706443  0.12950568  0.36823011    -0.34000
C131        C  0.68435225  0.13611636  0.38819875     0.02200
C132        C  0.68137563  0.16327289  0.39389754     0.08300
C133        C  0.66151622  0.17211611  0.37638805    -0.04800
H134        H  0.69779502  0.12203458  0.39800719     0.08900
H135        H  0.65370310  0.19236575  0.37473377     0.10100
Cu136      Cu  0.66143417  0.09141958  0.35146297     0.44200
Cu137      Cu  0.62478812  0.15223904  0.33016380     0.42000
Cu138      Cu  0.61370570  0.08928536  0.29645007     0.43900
N139        N  0.64979668  0.05589112  0.33232688    -0.33500
N140        N  0.63229392  0.05549728  0.31211724    -0.27700
C141        C  0.62725792  0.02989690  0.30507905    -0.03800
C142        C  0.64222574  0.01322292  0.32164782     0.08400
C143        C  0.65640412  0.03035252  0.33867368     0.02200
H144        H  0.61294170  0.02390314  0.28966030     0.09800
H145        H  0.66966532  0.02468946  0.35511172     0.08900
N146        N  0.59463940  0.12451310  0.28518328    -0.34900
N147        N  0.59834287  0.14772764  0.29771221    -0.27100
C148        C  0.58249272  0.16642983  0.28608246    -0.02400
C149        C  0.56813042  0.15427372  0.26521668     0.06300
C150        C  0.57642951  0.12775475  0.26526209     0.04400
H151        H  0.58152488  0.18721925  0.29248862     0.09500
H152        H  0.56945065  0.11185125  0.25201876     0.08300
O153        O  0.76003093  0.25233278  0.45644758    -0.71800
O154        O  0.72612278  0.20701201  0.51422992    -0.72700
O155        O  0.76386347  0.25036592  0.51384075    -0.61400
O156        O  0.72274404  0.20880474  0.45679769    -0.69800
O157        O  0.75666835  0.17981147  0.45399136    -0.69300
O158        O  0.79750286  0.22110622  0.51050777    -0.60600
O159        O  0.75969629  0.17766738  0.51119350    -0.73100
O160        O  0.79404291  0.22350491  0.45317203    -0.71900
Cu161      Cu  0.74201966  0.23064197  0.48546663     1.04600
Cu162      Cu  0.77816274  0.19951977  0.48213549     1.04300
C163        C  0.78233531  0.24522530  0.44573285     0.94400
C164        C  0.73729533  0.18505079  0.52162475     0.93600
C165        C  0.78736939  0.24234415  0.52089311     0.85700
C166        C  0.73329347  0.18761923  0.44654380     0.92000
N167        N  0.67324905  0.84350965  0.60553387    -0.26100
N168        N  0.68565351  0.86595886  0.59857581    -0.34000
C169        C  0.70378364  0.86020395  0.57907664     0.02200
C170        C  0.70239568  0.83280726  0.57371376     0.08300
C171        C  0.68290294  0.82300337  0.59084896    -0.04800
H172        H  0.71608877  0.87498497  0.56886120     0.08900
H173        H  0.67551791  0.80255382  0.59189824     0.10100
Cu174      Cu  0.67479521  0.90307464  0.61487982     0.44200
Cu175      Cu  0.64218939  0.84128290  0.63275667     0.42000
Cu176      Cu  0.62038123  0.90095810  0.66601721     0.43900
N177        N  0.65790997  0.93671139  0.63355539    -0.33500
N178        N  0.63871756  0.93586123  0.65214928    -0.27700
C179        C  0.63212949  0.96113950  0.65930324    -0.03800
C180        C  0.64777313  0.97874210  0.64445884     0.08400
C181        C  0.66387600  0.96259648  0.62835547     0.02200
H182        H  0.61661241  0.96628251  0.67378656     0.09800
H183        H  0.67861970  0.96914461  0.61366250     0.08900
N184        N  0.60300054  0.86359984  0.67279756    -0.34900
N185        N  0.61092729  0.84175579  0.65982460    -0.27100
C186        C  0.59552716  0.82086081  0.66723443    -0.02400
C187        C  0.57706849  0.82986753  0.68597661     0.06300
C188        C  0.58230469  0.85713107  0.68910865     0.04400
H189        H  0.59774520  0.80055912  0.65962781     0.09500
H190        H  0.57173653  0.87130959  0.70189528     0.08300
N191        N  0.65881663  0.14595082  0.60694698    -0.26100
N192        N  0.67206804  0.12422505  0.59910268    -0.34000
C193        C  0.68978779  0.13112205  0.57965420     0.02200
C194        C  0.68744290  0.15854131  0.57505714     0.08300
C195        C  0.66755533  0.16716961  0.59261051    -0.04800
H196        H  0.70305445  0.11713480  0.56945121     0.08900
H197        H  0.66007396  0.18748722  0.59492180     0.10100
Cu198      Cu  0.66470861  0.08635922  0.61526785     0.44200
Cu199      Cu  0.63001871  0.14611153  0.63740707     0.42000
Cu200      Cu  0.61734867  0.08387802  0.67224452     0.43900
N201        N  0.65262946  0.05118962  0.63445200    -0.33500
N202        N  0.63556480  0.05029664  0.65500864    -0.27700
C203        C  0.63144715  0.02444936  0.66187840    -0.03800
C204        C  0.64666648  0.00833626  0.64490499     0.08400
C205        C  0.65985655  0.02593878  0.62780701     0.02200
H206        H  0.61807501  0.01789845  0.67783957     0.09800
H207        H  0.67334227  0.02079599  0.61140104     0.08900
N208        N  0.59926208  0.12006983  0.68299966    -0.34900
N209        N  0.60355960  0.14272654  0.66975037    -0.27100
C210        C  0.58794273  0.16218052  0.68034549    -0.02400
C211        C  0.57301607  0.15125865  0.70135278     0.06300
C212        C  0.58083665  0.12455417  0.70250004     0.04400
H213        H  0.58737109  0.18262596  0.67295384     0.09500
H214        H  0.57309455  0.10930222  0.71600407     0.08300
N215        N  0.31397755  0.84587124  0.61286574    -0.26100
N216        N  0.30128747  0.86680364  0.60244012    -0.34000
C217        C  0.28526936  0.85826929  0.58214456     0.02200
C218        C  0.28821570  0.83062182  0.57973718     0.08300
C219        C  0.30664069  0.82352368  0.59941769    -0.04800
H220        H  0.27280659  0.87130630  0.56987664     0.08900
H221        H  0.31405404  0.80352924  0.60379509     0.10100
Cu222      Cu  0.30739875  0.90588098  0.61609538     0.44200
Cu223      Cu  0.34031980  0.84848292  0.64511604     0.42000
Cu224      Cu  0.35380609  0.91360587  0.67370409     0.43900
N225        N  0.31910109  0.94262337  0.63246029    -0.33500
N226        N  0.33586944  0.94534259  0.65316684    -0.27700
C227        C  0.34021180  0.97167263  0.65765460    -0.03800
C228        C  0.32551256  0.98621934  0.63892759     0.08400
C229        C  0.31231148  0.96719138  0.62331684     0.02200
H230        H  0.35355653  0.97958326  0.67308555     0.09800
H231        H  0.29928145  0.97086345  0.60612822     0.08900
N232        N  0.37106679  0.87845605  0.68829897    -0.34900
N233        N  0.36598576  0.85469001  0.67743735    -0.27100
C234        C  0.38098543  0.83596811  0.68986146    -0.02400
C235        C  0.39649279  0.84850200  0.70954722     0.06300
C236        C  0.38955284  0.87544089  0.70808926     0.04400
H237        H  0.38083997  0.81489417  0.68440873     0.09500
H238        H  0.39801666  0.89176504  0.71987879     0.08300
N239        N  0.36003962  0.15472296  0.64417537    -0.26100
N240        N  0.36804543  0.13330964  0.65779623    -0.34000
C241        C  0.38756955  0.14064866  0.67525933     0.02200
C242        C  0.39206375  0.16804730  0.67237762     0.08300
C243        C  0.37426329  0.17623183  0.65250266    -0.04800
H244        H  0.39788103  0.12690840  0.68869415     0.08900
H245        H  0.37185685  0.19636764  0.64459963     0.10100
Cu246      Cu  0.35252760  0.09504510  0.65114843     0.44200
Cu247      Cu  0.33039733  0.15366255  0.61470547     0.42000
Cu248      Cu  0.30129920  0.08882392  0.59849510     0.43900
N249        N  0.33505254  0.05885418  0.63947139    -0.33500
N250        N  0.31668777  0.05652009  0.62014791    -0.27700
C251        C  0.31026886  0.03038513  0.61712665    -0.03800
C252        C  0.32525889  0.01561161  0.63546392     0.08400
C253        C  0.34071610  0.03428911  0.64930204     0.02200
H254        H  0.29588613  0.02273474  0.60252464     0.09800
H255        H  0.35532823  0.03032594  0.66508554     0.08900
N256        N  0.28939608  0.12454734  0.58036979    -0.34900
N257        N  0.30021214  0.14813415  0.58630721    -0.27100
C258        C  0.28826883  0.16727145  0.57133928    -0.02400
C259        C  0.26890871  0.15515144  0.55517021     0.06300
C260        C  0.27016911  0.12808231  0.56145025     0.04400
H261        H  0.29330145  0.18840425  0.57243615     0.09500
H262        H  0.25801148  0.11211699  0.55288169     0.08300
O263        O  0.51049864  0.19129668  0.74909874    -0.71800
O264        O  0.44653827  0.22675082  0.78569157    -0.72700
O265        O  0.45364449  0.18588080  0.74587991    -0.61400
O266        O  0.50346351  0.23176191  0.78973726    -0.69800
O267        O  0.50331504  0.26320994  0.75791860    -0.69300
O268        O  0.45223696  0.21700150  0.71375177    -0.60600
O269        O  0.44629200  0.25775041  0.75342119    -0.73100
O270        O  0.50929649  0.22280774  0.71736314    -0.71900
Cu271      Cu  0.47861285  0.20784551  0.76872275     1.04600
Cu272      Cu  0.47779140  0.24127982  0.73449023     1.04300
C273        C  0.51972004  0.20150167  0.72720599     0.94400
C274        C  0.43637203  0.24792247  0.77504716     0.93600
C275        C  0.44486756  0.19415316  0.72310007     0.85700
C276        C  0.51119668  0.25462915  0.78104739     0.92000
O277        O  0.21440965  0.19355352  0.49871882    -0.71800
O278        O  0.16878917  0.22735856  0.44098060    -0.72700
O279        O  0.21559848  0.19442342  0.44142432    -0.61400
O280        O  0.16729956  0.22684142  0.49819502    -0.69800
O281        O  0.19341630  0.26306910  0.49905238    -0.69300
O282        O  0.24177539  0.23060905  0.44245833    -0.60600
O283        O  0.19511391  0.26348206  0.44173564    -0.73100
O284        O  0.24025874  0.22999667  0.49988070    -0.71900
Cu285      Cu  0.19062805  0.20926324  0.46982933     1.04600
Cu286      Cu  0.21853170  0.24806282  0.47087089     1.04300
C287        C  0.23471779  0.20634001  0.50818408     0.94400
C288        C  0.17484999  0.25069734  0.43219284     0.93600
C289        C  0.23626128  0.20732383  0.43300147     0.85700
C290        C  0.17259432  0.25032020  0.50730996     0.92000
N291        N  0.65916855  0.38603987  0.82641007    -0.26100
N292        N  0.67118416  0.39049336  0.84987837    -0.34000
C293        C  0.69215892  0.40725925  0.84608363     0.02200
C294        C  0.69324048  0.41361576  0.81882029     0.08300
C295        C  0.67204402  0.39987135  0.80703710    -0.04800
H296        H  0.70497452  0.41486407  0.86210050     0.08900
H297        H  0.66607147  0.40032113  0.78596668     0.10100
Cu298      Cu  0.65694449  0.37466232  0.88577091     0.44200
Cu299      Cu  0.62542255  0.36193410  0.82196715     0.42000
Cu300      Cu  0.59875987  0.32989668  0.88270283     0.43900
N301        N  0.63846362  0.35834274  0.91944023    -0.33500
N302        N  0.61748506  0.34190594  0.91882213    -0.27700
C303        C  0.61070840  0.33569337  0.94452516    -0.03800
C304        C  0.62821600  0.34902445  0.96194050     0.08400
C305        C  0.64545745  0.36312129  0.94527275     0.02200
H306        H  0.59407455  0.32277981  0.95010975     0.09800
H307        H  0.66188228  0.37609715  0.95141819     0.08900
N308        N  0.58385894  0.32318651  0.84354970    -0.34900
N309        N  0.59326055  0.33538914  0.82174027    -0.27100
C310        C  0.57947715  0.32685687  0.79986309    -0.02400
C311        C  0.56063177  0.30815591  0.80809645     0.06300
C312        C  0.56391684  0.30635827  0.83597686     0.04400
H313        H  0.58335501  0.33333553  0.77934519     0.09500
H314        H  0.55272337  0.29377176  0.84980703     0.08300
N315        N  0.60126823  0.32470782  0.13128227    -0.26100
N316        N  0.59206651  0.31296233  0.10907108    -0.34000
C317        C  0.57298040  0.29495389  0.11601497     0.02200
C318        C  0.57003393  0.29565892  0.14393199     0.08300
C319        C  0.58820027  0.31475645  0.15283616    -0.04800
H320        H  0.56149639  0.28303270  0.10173121     0.08900
H321        H  0.59143090  0.32125862  0.17350386     0.10100
Cu322      Cu  0.60481549  0.32377604  0.07045975     0.44200
Cu323      Cu  0.63077044  0.35415016  0.13182658     0.42000
Cu324      Cu  0.65758333  0.37588826  0.06842582     0.43900
N325        N  0.62040152  0.34002558  0.03495172    -0.33500
N326        N  0.63945292  0.35867966  0.03434013    -0.27700
C327        C  0.64496283  0.36459774  0.00837936    -0.03800
C328        C  0.62863398  0.34904739  0.99182516     0.08400
C329        C  0.61327362  0.33372979  0.00935274     0.02200
H330        H  0.65978974  0.37923856  0.00204852     0.09800
H331        H  0.59813746  0.31898968  0.00394181     0.08900
N332        N  0.67174194  0.39022951  0.10558197    -0.34900
N333        N  0.66137570  0.38228719  0.12884942    -0.27100
C334        C  0.67386419  0.39517572  0.14926994    -0.02400
C335        C  0.69317683  0.41215704  0.13841652     0.06300
C336        C  0.69132821  0.40838879  0.11064521     0.04400
H337        H  0.66915587  0.39224639  0.17042277     0.09500
H338        H  0.70305820  0.41845017  0.09524601     0.08300
O339        O  0.71396801  0.46840704  0.21510494    -0.71800
O340        O  0.75490932  0.52531478  0.25556897    -0.72700
O341        O  0.71759526  0.52540638  0.21182877    -0.61400
O342        O  0.75133653  0.46817681  0.25868787    -0.69800
O343        O  0.78474787  0.46432616  0.22912519    -0.69300
O344        O  0.75145704  0.52177870  0.18273155    -0.60600
O345        O  0.78897746  0.52157781  0.22673990    -0.73100
O346        O  0.74706881  0.46492480  0.18511312    -0.71900
Cu347      Cu  0.73332220  0.49695648  0.23631345     1.04600
Cu348      Cu  0.76929691  0.49300360  0.20493884     1.04300
C349        C  0.72374173  0.45793649  0.19363500     0.94400
C350        C  0.77830136  0.53251564  0.24762660     0.93600
C351        C  0.72915469  0.53249481  0.18983014     0.85700
C352        C  0.77335249  0.45713016  0.25117022     0.92000
N353        N  0.66588286  0.62487410  0.83829746    -0.26100
N354        N  0.67719179  0.61561462  0.86068206    -0.34000
C355        C  0.69465859  0.59596308  0.85420408     0.02200
C356        C  0.69426480  0.59260572  0.82637509     0.08300
C357        C  0.67570218  0.61113389  0.81698001    -0.04800
H358        H  0.70649975  0.58484804  0.86878854     0.08900
H359        H  0.66999251  0.61461019  0.79612969     0.10100
Cu360      Cu  0.66865508  0.62982692  0.89917050     0.44200
Cu361      Cu  0.63853131  0.65654455  0.83757852     0.42000
Cu362      Cu  0.62661185  0.68928676  0.90162929     0.43900
N363        N  0.65730855  0.64846137  0.93492030    -0.33500
N364        N  0.64231176  0.67043906  0.93562598    -0.27700
C365        C  0.63822973  0.67750094  0.96154996    -0.03800
C366        C  0.65123173  0.65909806  0.97798423     0.08400
C367        C  0.66313509  0.64091999  0.96044701     0.02200
H368        H  0.62628054  0.69457455  0.96791970     0.09800
H369        H  0.67492593  0.62340264  0.96578733     0.08900
N370        N  0.60945415  0.70208739  0.86555861    -0.34900
N371        N  0.61340542  0.68969801  0.84220152    -0.27100
C372        C  0.59796871  0.70136351  0.82315559    -0.02400
C373        C  0.58348835  0.72211388  0.83512986     0.06300
C374        C  0.59145236  0.72204618  0.86197477     0.04400
H375        H  0.59701552  0.69469128  0.80232937     0.09500
H376        H  0.58386958  0.73484861  0.87798508     0.08300
N377        N  0.60235617  0.68405078  0.13995439    -0.26100
N378        N  0.60180599  0.69774185  0.11708352    -0.34000
C379        C  0.58344791  0.71753280  0.11903829     0.02200
C380        C  0.57164632  0.71614797  0.14429144     0.08300
C381        C  0.58417293  0.69468857  0.15711675    -0.04800
H382        H  0.57846911  0.73139421  0.10293465     0.08900
H383        H  0.58032914  0.68719298  0.17727831     0.10100
Cu384      Cu  0.62399186  0.68695333  0.08348877     0.44200
Cu385      Cu  0.62763853  0.65122447  0.14579197     0.42000
Cu386      Cu  0.66514925  0.62674211  0.08663422     0.43900
N387        N  0.64166165  0.66922905  0.05015322    -0.33500
N388        N  0.65621434  0.64694863  0.05074137    -0.27700
C389        C  0.66249868  0.63998085  0.02510746    -0.03800
C390        C  0.65124800  0.65882585  0.00778062     0.08400
C391        C  0.63829205  0.67702473  0.02439263     0.02200
H392        H  0.67379526  0.62221142  0.01950158     0.09800
H393        H  0.62649491  0.69426578  0.01823425     0.08900
N394        N  0.66942586  0.61135671  0.12568860    -0.34900
N395        N  0.65553198  0.62002284  0.14684121    -0.27100
C396        C  0.66270702  0.60570281  0.16877205    -0.02400
C397        C  0.68215699  0.58726594  0.16125189     0.06300
C398        C  0.68593607  0.59138041  0.13374393     0.04400
H399        H  0.65440577  0.60858105  0.18880744     0.09500
H400        H  0.69937441  0.58049371  0.12042273     0.08300
N401        N  0.36894169  0.66562811  0.82394892    -0.26100
N402        N  0.37370016  0.68143404  0.84496363    -0.34000
C403        C  0.39380273  0.69840794  0.83875537     0.02200
C404        C  0.40208632  0.69303009  0.81249492     0.08300
C405        C  0.38594021  0.67207996  0.80379113    -0.04800
H406        H  0.40149678  0.71361215  0.85240902     0.08900
H407        H  0.38612611  0.66259794  0.78407006     0.10100
Cu408      Cu  0.35251979  0.67982423  0.88104808     0.44200
Cu409      Cu  0.33870449  0.63706419  0.82315934     0.42000
Cu410      Cu  0.29638072  0.63344795  0.88243575     0.43900
N411        N  0.32909108  0.67309169  0.91505204    -0.33500
N412        N  0.30845052  0.65627129  0.91533348    -0.27700
C413        C  0.29844433  0.65503439  0.94053575    -0.03800
C414        C  0.31357368  0.67178023  0.95696007     0.08400
C415        C  0.33281343  0.68298650  0.94016497     0.02200
H416        H  0.28209202  0.64199514  0.94662437     0.09800
H417        H  0.34893422  0.69651021  0.94591868     0.08900
N418        N  0.29009557  0.61060362  0.84796759    -0.34900
N419        N  0.30585572  0.61174100  0.82645681    -0.27100
C420        C  0.29672890  0.59438678  0.80770492    -0.02400
C421        C  0.27413413  0.58174830  0.81784764     0.06300
C422        C  0.27045596  0.59247222  0.84348286     0.04400
H423        H  0.30582221  0.59129579  0.78804967     0.09500
H424        H  0.25484519  0.58752184  0.85789582     0.08300
N425        N  0.34785949  0.68780908  0.12443048    -0.26100
N426        N  0.35759456  0.70010938  0.10288714    -0.34000
C427        C  0.37913255  0.71487550  0.11045979     0.02200
C428        C  0.38291249  0.71139450  0.13808896     0.08300
C429        C  0.36278665  0.69414285  0.14614953    -0.04800
H430        H  0.39122066  0.72684456  0.09683116     0.08900
H431        H  0.35924428  0.68663689  0.16637016     0.10100
Cu432      Cu  0.34098718  0.69460828  0.06458495     0.44200
Cu433      Cu  0.31529949  0.66242730  0.12396120     0.42000
Cu434      Cu  0.28147575  0.64915425  0.06226403     0.43900
N435        N  0.32101243  0.68262383  0.02949195    -0.33500
N436        N  0.29967477  0.66660492  0.02888990    -0.27700
C437        C  0.29323821  0.66130854  0.00301095    -0.03800
C438        C  0.31135896  0.67446475  0.98649957     0.08400
C439        C  0.32863542  0.68788437  0.00390006     0.02200
H440        H  0.27727129  0.64781613  0.99676994     0.09800
H441        H  0.34618725  0.69958933  0.99844744     0.08900
N442        N  0.27089755  0.63064230  0.09823473    -0.34900
N443        N  0.28395282  0.63572757  0.12096714    -0.27100
C444        C  0.27464012  0.61971209  0.14060467    -0.02400
C445        C  0.25466771  0.60355304  0.12972391     0.06300
C446        C  0.25264945  0.61112683  0.10283286     0.04400
H447        H  0.28237116  0.61961596  0.16108431     0.09500
H448        H  0.23967670  0.60237578  0.08753854     0.08300
O449        O  0.49807637  0.73631689  0.20514375    -0.71800
O450        O  0.43795810  0.78208624  0.23341105    -0.72700
O451        O  0.44276301  0.74305345  0.19192870    -0.61400
O452        O  0.49316205  0.77556479  0.24634126    -0.69800
O453        O  0.50313306  0.80769037  0.21685996    -0.69300
O454        O  0.45322110  0.77473942  0.16215760    -0.60600
O455        O  0.44786917  0.81411748  0.20384551    -0.73100
O456        O  0.50863466  0.76808557  0.17549183    -0.71900
Cu457      Cu  0.46760073  0.75812907  0.22016903     1.04600
Cu458      Cu  0.47860157  0.79226756  0.18851250     1.04300
C459        C  0.51294016  0.74496489  0.18598995     0.94400
C460        C  0.43354066  0.80536165  0.22342078     0.93600
C461        C  0.43989976  0.75375757  0.16858195     0.85700
C462        C  0.50596652  0.79695021  0.24018214     0.92000
N463        N  0.34922734  0.30220792  0.83151414    -0.26100
N464        N  0.35385321  0.28976568  0.85470173    -0.34000
C465        C  0.37283125  0.27077563  0.85080471     0.02200
C466        C  0.38074189  0.27143931  0.82397855     0.08300
C467        C  0.36520939  0.29154930  0.81232150    -0.04800
H468        H  0.38109912  0.25819232  0.86660896     0.08900
H469        H  0.36582544  0.29850441  0.79161035     0.10100
Cu470      Cu  0.33631212  0.30100358  0.89118832     0.44200
Cu471      Cu  0.32276083  0.33437020  0.82692488     0.42000
Cu472      Cu  0.29103830  0.35808079  0.88808089     0.43900
N473        N  0.31896914  0.31870484  0.92510044    -0.33500
N474        N  0.30254114  0.33962310  0.92391150    -0.27700
C475        C  0.29602809  0.34721407  0.94922402    -0.03800
C476        C  0.30900804  0.33030014  0.96722140     0.08400
C477        C  0.32335489  0.31244668  0.95123495     0.02200
H478        H  0.28339845  0.36427917  0.95412400     0.09800
H479        H  0.33664232  0.29658287  0.95805987     0.08900
N480        N  0.28346221  0.37434379  0.85018074    -0.34900
N481        N  0.29534506  0.36604880  0.82773229    -0.27100
C482        C  0.28658792  0.38117107  0.80689247    -0.02400
C483        C  0.26815464  0.39970663  0.81666728     0.06300
C484        C  0.26673006  0.39478285  0.84424504     0.04400
H485        H  0.29309879  0.37879956  0.78613077     0.09500
H486        H  0.25479947  0.40546558  0.85908926     0.08300
N487        N  0.36429770  0.33085779  0.12875146    -0.26100
N488        N  0.36418693  0.31182372  0.11006303    -0.34000
C489        C  0.38053298  0.29170521  0.11813606     0.02200
C490        C  0.39131006  0.29862349  0.14315764     0.08300
C491        C  0.38056486  0.32351633  0.14916654    -0.04800
H492        H  0.38445252  0.27367614  0.10649932     0.08900
H493        H  0.38429721  0.33546841  0.16710790     0.10100
Cu494      Cu  0.34213611  0.31561662  0.07444010     0.44200
Cu495      Cu  0.34153089  0.36541321  0.12636030     0.42000
Cu496      Cu  0.29531075  0.37341110  0.07103944     0.43900
N497        N  0.32130810  0.32750722  0.03988614    -0.33500
N498        N  0.30457459  0.34823317  0.03863136    -0.27700
C499        C  0.29683710  0.35171385  0.01275128    -0.03800
C500        C  0.30934740  0.33238695  0.99697428     0.08400
C501        C  0.32459091  0.31732671  0.01484537     0.02200
H502        H  0.28404372  0.36792170  0.00579733     0.09800
H503        H  0.33811462  0.30097796  0.00987905     0.08900
N504        N  0.29433442  0.39738409  0.10559489    -0.34900
N505        N  0.31236487  0.39484414  0.12514583    -0.27100
C506        C  0.30679180  0.41236605  0.14501725    -0.02400
C507        C  0.28399673  0.42654504  0.13791843     0.06300
C508        C  0.27653971  0.41665945  0.11268881     0.04400
H509        H  0.31788606  0.41384607  0.16382948     0.09500
H510        H  0.25930915  0.42257547  0.10063353     0.08300
N511        N  0.82898980  0.38586021  0.66045811    -0.26100
N512        N  0.85200708  0.39112604  0.67293258    -0.34000
C513        C  0.84760656  0.40992159  0.69213153     0.02200
C514        C  0.82048449  0.41677482  0.69153910     0.08300
C515        C  0.80942329  0.40121286  0.67118024    -0.04800
H516        H  0.86307427  0.41816499  0.70519403     0.08900
H517        H  0.78856459  0.40093302  0.66471931     0.10100
Cu518      Cu  0.88825272  0.37295467  0.66216638     0.44200
Cu519      Cu  0.82472216  0.35757724  0.62988947     0.42000
Cu520      Cu  0.88478642  0.32287035  0.60801750     0.43900
N521        N  0.92177281  0.35430356  0.64512152    -0.33500
N522        N  0.92062075  0.33642327  0.62526523    -0.27700
C523        C  0.94590792  0.32952690  0.61812631    -0.03800
C524        C  0.96379234  0.34372094  0.63426668     0.08400
C525        C  0.94778178  0.35916380  0.65115902     0.02200
H526        H  0.95086868  0.31551312  0.60210793     0.09800
H527        H  0.95450963  0.37336036  0.66636350     0.08900
N528        N  0.84632595  0.31371629  0.59383237    -0.34900
N529        N  0.82442587  0.32678768  0.60155134    -0.27100
C530        C  0.80291260  0.31655195  0.58848503    -0.02400
C531        C  0.81158793  0.29591286  0.57185705     0.06300
C532        C  0.83929014  0.29468830  0.57572759     0.04400
H533        H  0.78242051  0.32360958  0.59094674     0.09500
H534        H  0.85342341  0.28131512  0.56587903     0.08300
N535        N  0.13001076  0.32783160  0.59154494    -0.26100
N536        N  0.10829759  0.31438485  0.58386280    -0.34000
C537        C  0.11545281  0.29677659  0.56428246     0.02200
C538        C  0.14293921  0.29962025  0.55955586     0.08300
C539        C  0.15131561  0.31951104  0.57709717    -0.04800
H540        H  0.10164425  0.28335334  0.55399395     0.08900
H541        H  0.17157076  0.32731096  0.57935866     0.10100
Cu542      Cu  0.07028953  0.32209293  0.60058024     0.44200
Cu543      Cu  0.13086071  0.35624073  0.62193588     0.42000
Cu544      Cu  0.07075295  0.36996148  0.65819172     0.43900
N545        N  0.03587352  0.33577777  0.62093163    -0.33500
N546        N  0.03633794  0.35284116  0.64156499    -0.27700
C547        C  0.01092270  0.35794348  0.64947544    -0.03800
C548        C  0.99351238  0.34347845  0.63315556     0.08400
C549        C  0.00998225  0.32962667  0.61527711     0.02200
H550        H  0.00555482  0.37149764  0.66576130     0.09800
H551        H  0.00362819  0.31633182  0.59911662     0.08900
N552        N  0.10767949  0.38634559  0.66899350    -0.34900
N553        N  0.12980727  0.38154077  0.65497497    -0.27100
C554        C  0.15040324  0.39537934  0.66584676    -0.02400
C555        C  0.14085768  0.40952689  0.68789424     0.06300
C556        C  0.11360954  0.40338784  0.68936308     0.04400
H557        H  0.17082443  0.39524392  0.65815799     0.09500
H558        H  0.09904503  0.41109439  0.70368774     0.08300
O559        O  0.15495380  0.46663678  0.76641421    -0.71800
O560        O  0.19743114  0.52184607  0.80813415    -0.72700
O561        O  0.15566476  0.52353321  0.76857456    -0.61400
O562        O  0.19654777  0.46487435  0.80623074    -0.69800
O563        O  0.22734272  0.46472950  0.77367468    -0.69300
O564        O  0.18661079  0.52454220  0.73619082    -0.60600
O565        O  0.22827490  0.52186473  0.77562396    -0.73100
O566        O  0.18585749  0.46740844  0.73396885    -0.71900
Cu567      Cu  0.17509916  0.49418044  0.78847570     1.04600
Cu568      Cu  0.20811291  0.49465280  0.75372638     1.04300
C569        C  0.16365557  0.45850286  0.74349075     0.94400
C570        C  0.21961239  0.53052405  0.79836953     0.93600
C571        C  0.16459403  0.53329966  0.74646342     0.85700
C572        C  0.21828625  0.45554397  0.79606653     0.92000
N573        N  0.82704719  0.62170692  0.66065669    -0.26100
N574        N  0.84942087  0.61675504  0.67429332    -0.34000
C575        C  0.84406778  0.59935844  0.69431178     0.02200
C576        C  0.81692216  0.59303272  0.69320082     0.08300
C577        C  0.80676425  0.60744787  0.67156214    -0.04800
H578        H  0.85903797  0.59155094  0.70815753     0.08900
H579        H  0.78619871  0.60747095  0.66420262     0.10100
Cu580      Cu  0.88633641  0.63298879  0.66444486     0.44200
Cu581      Cu  0.82574689  0.64766394  0.62804008     0.42000
Cu582      Cu  0.88860451  0.68066886  0.60885347     0.43900
N583        N  0.92150164  0.64998560  0.65032297    -0.33500
N584        N  0.92258436  0.66747546  0.63021648    -0.27700
C585        C  0.94860032  0.67378772  0.62571904    -0.03800
C586        C  0.96450285  0.65949335  0.64378976     0.08400
C587        C  0.94662781  0.64464827  0.65906440     0.02200
H588        H  0.95544814  0.68734568  0.61007532     0.09800
H589        H  0.95148191  0.63064344  0.67508231     0.08900
N590        N  0.85143780  0.68787939  0.59008893    -0.34900
N591        N  0.82894776  0.67538813  0.59706966    -0.27100
C592        C  0.80867271  0.68382567  0.58117054    -0.02400
C593        C  0.81861780  0.70262034  0.56330137     0.06300
C594        C  0.84588574  0.70477454  0.56947682     0.04400
H595        H  0.78804935  0.67688283  0.58266795     0.09500
H596        H  0.86063278  0.71750193  0.55973119     0.08300
N597        N  0.13161083  0.68144147  0.61048912    -0.26100
N598        N  0.10864891  0.69290018  0.60338946    -0.34000
C599        C  0.11348211  0.71143392  0.58424027     0.02200
C600        C  0.14081480  0.71162641  0.57891693     0.08300
C601        C  0.15175539  0.69232065  0.59595849    -0.04800
H602        H  0.09815560  0.72363421  0.57464163     0.08900
H603        H  0.17269227  0.68649075  0.59773632     0.10100
Cu604      Cu  0.07191173  0.68204598  0.61961488     0.44200
Cu605      Cu  0.13385746  0.65147719  0.63955086     0.42000
Cu606      Cu  0.07105779  0.63074831  0.67217125     0.43900
N607        N  0.03710570  0.66728681  0.63695902    -0.33500
N608        N  0.03639984  0.64877695  0.65614479    -0.27700
C609        C  0.01039884  0.64338336  0.66194323    -0.03800
C610        C  0.99416857  0.65922316  0.64552934     0.08400
C611        C  0.01180799  0.67408458  0.63002546     0.02200
H612        H  0.00382184  0.62863386  0.67658453     0.09800
H613        H  0.00669872  0.68850292  0.61446911     0.08900
N614        N  0.10897194  0.61468380  0.68146260    -0.34900
N615        N  0.13146471  0.62203964  0.66913949    -0.27100
C616        C  0.15204118  0.60702538  0.67839596    -0.02400
C617        C  0.14226309  0.58941991  0.69758359     0.06300
C618        C  0.11481750  0.59482803  0.69908303     0.04400
H619        H  0.17263431  0.60858238  0.67136750     0.09500
H620        H  0.10002120  0.58459351  0.71138914     0.08300
O621        O  0.25242837  0.77840240  0.51962944    -0.71800
O622        O  0.21726297  0.72925259  0.46513168    -0.72700
O623        O  0.25311933  0.77344921  0.46240557    -0.61400
O624        O  0.21692261  0.73380625  0.52248228    -0.69800
O625        O  0.18187846  0.76147854  0.51991938    -0.69300
O626        O  0.21864700  0.80180233  0.45946453    -0.60600
O627        O  0.18259388  0.75737257  0.46264720    -0.73100
O628        O  0.21763419  0.80635504  0.51670296    -0.71900
Cu629      Cu  0.23614222  0.75278438  0.49253831     1.04600
Cu630      Cu  0.19894566  0.78273569  0.48963222     1.04300
C631        C  0.24059724  0.80020658  0.52659768     0.94400
C632        C  0.19432508  0.73568500  0.45525063     0.93600
C633        C  0.24178643  0.79371169  0.45141059     0.85700
C634        C  0.19362864  0.74113560  0.53053835     0.92000
N635        N  0.83634641  0.68460707  0.35175245    -0.26100
N636        N  0.85874162  0.69861092  0.35509247    -0.34000
C637        C  0.85423461  0.71906791  0.37218122     0.02200
C638        C  0.82774487  0.71797247  0.38030330     0.08300
C639        C  0.81680569  0.69585695  0.36698351    -0.04800
H640        H  0.86940768  0.73329113  0.37877964     0.08900
H641        H  0.79639200  0.68833811  0.36839166     0.10100
Cu642      Cu  0.89502222  0.68888640  0.33806270     0.44200
Cu643      Cu  0.83479390  0.65079516  0.32669619     0.42000
Cu644      Cu  0.89903808  0.63228833  0.29360875     0.43900
N645        N  0.93049781  0.67607281  0.32139681    -0.33500
N646        N  0.93237798  0.65546040  0.30459440    -0.27700
C647        C  0.95850607  0.65199101  0.29809773    -0.03800
C648        C  0.97353196  0.67125141  0.31176615     0.08400
C649        C  0.95512904  0.68611588  0.32633061     0.02200
H650        H  0.96607581  0.63602089  0.28528600     0.09800
H651        H  0.95930512  0.70264709  0.33999072     0.08900
N652        N  0.86249352  0.61230068  0.28760807    -0.34900
N653        N  0.83956419  0.61877396  0.29969549    -0.27100
C654        C  0.82012152  0.60179405  0.29126183    -0.02400
C655        C  0.83126720  0.58376017  0.27295216     0.06300
C656        C  0.85811556  0.59110728  0.27113600     0.04400
H657        H  0.79933679  0.60287574  0.29776226     0.09500
H658        H  0.87339170  0.58173995  0.25866336     0.08300
N659        N  0.13498974  0.67848241  0.37031432    -0.26100
N660        N  0.11286316  0.69277553  0.37459454    -0.34000
C661        C  0.11729876  0.70999212  0.39512030     0.02200
C662        C  0.14335902  0.70648811  0.40429788     0.08300
C663        C  0.15406062  0.68630484  0.38814125    -0.04800
H664        H  0.10270199  0.72440655  0.40252293     0.08900
H665        H  0.17435516  0.67835795  0.38871375     0.10100
Cu666      Cu  0.07739170  0.68965026  0.35240775     0.44200
Cu667      Cu  0.13904438  0.65013579  0.33938203     0.42000
Cu668      Cu  0.08154571  0.64826893  0.29432698     0.43900
N669        N  0.04428495  0.68120472  0.32807297    -0.33500
N670        N  0.04613866  0.66563291  0.30648433    -0.27700
C671        C  0.02138459  0.66062591  0.29667906    -0.03800
C672        C  0.00297825  0.67381234  0.31283224     0.08400
C673        C  0.01813063  0.68686890  0.33246179     0.02200
H674        H  0.01709172  0.64720200  0.27995106     0.09800
H675        H  0.01062862  0.69806831  0.34967779     0.08900
N676        N  0.11578173  0.62596746  0.28856498    -0.34900
N677        N  0.13674657  0.62564318  0.30511426    -0.27100
C678        C  0.15470305  0.60749565  0.29580825    -0.02400
C679        C  0.14423411  0.59604180  0.27235378     0.06300
C680        C  0.11967779  0.60829535  0.26844368     0.04400
H681        H  0.17379233  0.60304711  0.30542587     0.09500
H682        H  0.10539889  0.60436833  0.25233080     0.08300
N683        N  0.83771747  0.30870128  0.36319223    -0.26100
N684        N  0.86030712  0.29462706  0.36528259    -0.34000
C685        C  0.85663854  0.27468218  0.38327943     0.02200
C686        C  0.83064229  0.27623355  0.39318582     0.08300
C687        C  0.81919139  0.29805477  0.37996898    -0.04800
H688        H  0.87193482  0.26023358  0.38896992     0.08900
H689        H  0.79888683  0.30566713  0.38219781     0.10100
Cu690      Cu  0.89586548  0.30296948  0.34462425     0.44200
Cu691      Cu  0.83231413  0.34158252  0.33732803     0.42000
Cu692      Cu  0.89066260  0.35615626  0.29684155     0.43900
N693        N  0.92872252  0.31720768  0.32282561    -0.33500
N694        N  0.92645319  0.33686839  0.30503812    -0.27700
C695        C  0.95093467  0.34302648  0.29527422    -0.03800
C696        C  0.96963818  0.32647863  0.30755324     0.08400
C697        C  0.95489518  0.31028404  0.32489831     0.02200
H698        H  0.95487265  0.35906849  0.28105958     0.09800
H699        H  0.96267688  0.29525945  0.33866113     0.08900
N700        N  0.85448714  0.37601295  0.29262983    -0.34900
N701        N  0.83291435  0.37154554  0.30763715    -0.27100
C702        C  0.81315396  0.38846950  0.29962466    -0.02400
C703        C  0.82301953  0.40410697  0.27853339     0.06300
C704        C  0.84916519  0.39554736  0.27473299     0.04400
H705        H  0.79311699  0.38902972  0.30822523     0.09500
H706        H  0.86340944  0.40303515  0.25999012     0.08300
N707        N  0.13691467  0.32323135  0.34223276    -0.26100
N708        N  0.11599478  0.30807529  0.34855534    -0.34000
C709        C  0.12283074  0.29179443  0.36912077     0.02200
C710        C  0.14938387  0.29710285  0.37603646     0.08300
C711        C  0.15763188  0.31715519  0.35865627    -0.04800
H712        H  0.10921937  0.27771548  0.37864497     0.08900
H713        H  0.17719493  0.32677303  0.35809452     0.10100
Cu714      Cu  0.07876900  0.31182420  0.33018770     0.44200
Cu715      Cu  0.13597421  0.35193086  0.31222268     0.42000
Cu716      Cu  0.07225368  0.36421789  0.27885830     0.43900
N717        N  0.04268305  0.32277632  0.31246083    -0.33500
N718        N  0.04012723  0.34189482  0.29404830    -0.27700
C719        C  0.01374707  0.34547976  0.28876908    -0.03800
C720        C  0.99911778  0.32783361  0.30466837     0.08400
C721        C  0.01810511  0.31371008  0.31934582     0.02200
H722        H  0.00580102  0.36056145  0.27516552     0.09800
H723        H  0.01435166  0.29878633  0.33479264     0.08900
N724        N  0.10754251  0.38509744  0.26996466    -0.34900
N725        N  0.13065454  0.38042477  0.28245575    -0.27100
C726        C  0.14940556  0.39761687  0.27336637    -0.02400
C727        C  0.13758615  0.41408279  0.25415780     0.06300
C728        C  0.11105725  0.40551388  0.25243774     0.04400
H729        H  0.16998164  0.39813101  0.28061386     0.09500
H730        H  0.09533349  0.41388157  0.23979073     0.08300
O731        O  0.24662122  0.53756153  0.20027514    -0.71800
O732        O  0.21130449  0.47546540  0.23749275    -0.72700
O733        O  0.24559897  0.48136634  0.19210062    -0.61400
O734        O  0.21276769  0.53191751  0.24571465    -0.69800
O735        O  0.17734055  0.53664748  0.21860369    -0.69300
O736        O  0.20990533  0.48483635  0.16517865    -0.60600
O737        O  0.17538498  0.47989852  0.21098219    -0.73100
O738        O  0.21136721  0.54130888  0.17274152    -0.71900
Cu739      Cu  0.23028337  0.50637932  0.21981893     1.04600
Cu740      Cu  0.19218146  0.51081435  0.19096637     1.04300
C741        C  0.23467814  0.54908122  0.18054658     0.94400
C742        C  0.18776277  0.46793000  0.23021159     0.93600
C743        C  0.23324309  0.47517906  0.17022875     0.85700
C744        C  0.19002093  0.54263793  0.24039437     0.92000
C745        C  0.14995103  0.43667435  0.23923269    -0.15200
C746        C  0.17519340  0.44515116  0.24444477    -0.30400
H747        H  0.13784327  0.44678962  0.22400190     0.13800
H748        H  0.18716011  0.43537800  0.25996415     0.14400
C749        C  0.15560820  0.57529187  0.25438800    -0.15200
C750        C  0.17880304  0.56246007  0.25953800    -0.30400
H751        H  0.14434007  0.57055287  0.23610261     0.13800
H752        H  0.19014895  0.56696382  0.27781021     0.14400
C753        C  0.18152999  0.71799805  0.43486695    -0.15200
C754        C  0.15648951  0.72278273  0.42559180    -0.30400
H755        H  0.19296088  0.70095386  0.42729941     0.13800
H756        H  0.14500154  0.73954331  0.43375723     0.14400
C757        C  0.15444387  0.72867370  0.55865325    -0.15200
C758        C  0.18048928  0.72539310  0.55207165    -0.30400
H759        H  0.14239805  0.74368167  0.54821951     0.13800
H760        H  0.19236738  0.70985445  0.56184537     0.14400
C761        C  0.14877381  0.55459030  0.73286223    -0.15200
C762        C  0.15824432  0.56848849  0.71162152    -0.30400
H763        H  0.12886331  0.55906473  0.74079658     0.13800
H764        H  0.17856977  0.56469506  0.70437731     0.14400
C765        C  0.14756976  0.43898918  0.72779720    -0.15200
C766        C  0.15687922  0.42811333  0.70473250    -0.30400
H767        H  0.12771111  0.43365878  0.73528449     0.13800
H768        H  0.17709611  0.43292163  0.69779979     0.14400
C769        C  0.27059529  0.44636173  0.15554565    -0.15200
C770        C  0.24602676  0.45665144  0.15067138    -0.30400
H771        H  0.28122175  0.45185686  0.17399132     0.13800
H772        H  0.23501935  0.45110571  0.13249312     0.14400
C773        C  0.25381557  0.42056093  0.80079732    -0.15200
C774        C  0.23278918  0.43428333  0.81103399    -0.30400
H775        H  0.26044790  0.42437278  0.78021473     0.13800
H776        H  0.22552027  0.42962525  0.83119883     0.14400
C777        C  0.24832320  0.57152012  0.16698293    -0.15200
C778        C  0.23988212  0.58164995  0.14323957    -0.30400
H779        H  0.26651041  0.57918305  0.17650279     0.13800
H780        H  0.22246071  0.57307455  0.13302775     0.14400
C781        C  0.40354423  0.72269951  0.15626852    -0.15200
C782        C  0.42076551  0.74212772  0.14891337    -0.30400
H783        H  0.40382459  0.71523430  0.17692163     0.13800
H784        H  0.42012134  0.75035170  0.12858628     0.14400
C785        C  0.23525518  0.55075403  0.81356902    -0.15200
C786        C  0.25806063  0.56128486  0.80348867    -0.30400
H787        H  0.22772754  0.55720009  0.83315603     0.13800
H788        H  0.26523838  0.55493580  0.78371088     0.14400
C789        C  0.54975828  0.73371833  0.15425762    -0.15200
C790        C  0.53524193  0.72779400  0.17636822    -0.30400
H791        H  0.54493303  0.75153551  0.14251822     0.13800
H792        H  0.53934957  0.70945792  0.18752853     0.14400
C793        C  0.79240401  0.55395413  0.26293522    -0.15200
C794        C  0.81783216  0.56176520  0.25767960    -0.30400
H795        H  0.78128318  0.56354431  0.27921490     0.13800
H796        H  0.82924889  0.55169078  0.24188408     0.14400
C797        C  0.78552833  0.43583317  0.26817981    -0.15200
C798        C  0.80969707  0.42517375  0.26222615    -0.30400
H799        H  0.77462202  0.42911137  0.28596094     0.13800
H800        H  0.82072452  0.43255850  0.24476773     0.14400
C801        C  0.69500003  0.56725716  0.17928583    -0.15200
C802        C  0.71677502  0.55289586  0.17196999    -0.30400
H803        H  0.68641490  0.56458643  0.19931682     0.13800
H804        H  0.72598843  0.55621704  0.15234240     0.14400
C805        C  0.70735480  0.43773996  0.17901817    -0.15200
C806        C  0.71141422  0.43098064  0.15294271    -0.30400
H807        H  0.69023031  0.42943820  0.18980551     0.13800
H808        H  0.72761383  0.44040999  0.14163189     0.14400
C809        C  0.15416916  0.26287874  0.52721243    -0.15200
C810        C  0.16057589  0.28601054  0.53973856    -0.30400
H811        H  0.13521797  0.25290791  0.53171990     0.13800
H812        H  0.18008040  0.29521609  0.53594291     0.14400
C813        C  0.15811105  0.26275363  0.41083904    -0.15200
C814        C  0.16575979  0.28506642  0.39771557    -0.30400
H815        H  0.13948650  0.25261279  0.40537588     0.13800
H816        H  0.18495335  0.29451138  0.40249133     0.14400
C817        C  0.54193401  0.29308143  0.79020644    -0.15200
C818        C  0.52917452  0.27078638  0.79856934    -0.30400
H819        H  0.53952864  0.29985225  0.76945316     0.13800
H820        H  0.53260629  0.26342441  0.81895354     0.14400
C821        C  0.41304020  0.26178885  0.78725388    -0.15200
C822        C  0.40285251  0.25557219  0.81163311    -0.30400
H823        H  0.40470432  0.27854596  0.77597286     0.13800
H824        H  0.41173641  0.23938887  0.82338050     0.14400
C825        C  0.25235191  0.19391726  0.52867873    -0.15200
C826        C  0.25051960  0.16779666  0.53538267    -0.30400
H827        H  0.26783853  0.20648983  0.53770461     0.13800
H828        H  0.23549683  0.15509965  0.52569393     0.14400
C829        C  0.41166845  0.18543130  0.68668386    -0.15200
C830        C  0.42601185  0.17673883  0.70799827    -0.30400
H831        H  0.41379542  0.20608901  0.67989538     0.13800
H832        H  0.42316659  0.15641304  0.71543635     0.14400
C833        C  0.25338770  0.81885807  0.54597303    -0.15200
C834        C  0.27532117  0.81203993  0.56033669    -0.30400
H835        H  0.24419742  0.83849035  0.54878518     0.13800
H836        H  0.28373341  0.79194636  0.55842492     0.14400
C837        C  0.55191316  0.16427776  0.71809389    -0.15200
C838        C  0.54234330  0.18893381  0.71242839    -0.30400
H839        H  0.54324686  0.15281860  0.73462716     0.13800
H840        H  0.55037863  0.19999256  0.69533539     0.14400
C841        C  0.79421434  0.26268283  0.42467640    -0.15200
C842        C  0.81860518  0.25817715  0.41372830    -0.30400
H843        H  0.78260420  0.28012378  0.41847575     0.13800
H844        H  0.83045868  0.24104408  0.42039444     0.14400
C845        C  0.79447721  0.27979391  0.55335874    -0.15200
C846        C  0.80366693  0.25770706  0.54065176    -0.30400
H847        H  0.77382629  0.28635740  0.55013267     0.13800
H848        H  0.82406585  0.25073333  0.54445980     0.14400
C849        C  0.72406346  0.16769671  0.54197863    -0.15200
C850        C  0.70181264  0.17565740  0.55533140    -0.30400
H851        H  0.73271552  0.14802545  0.54590851     0.13800
H852        H  0.69382511  0.19572655  0.55197871     0.14400
C853        C  0.69574766  0.17978292  0.41428850    -0.15200
C854        C  0.71865771  0.17144709  0.42616023    -0.30400
H855        H  0.68763216  0.19952234  0.41907172     0.13800
H856        H  0.72738672  0.15222591  0.42046530     0.14400
C857        C  0.53466545  0.83375412  0.25681491    -0.15200
C858        C  0.52429860  0.80907185  0.26026194    -0.30400
H859        H  0.52889403  0.84559641  0.23926911     0.13800
H860        H  0.52911135  0.79754505  0.27827689     0.14400
C861        C  0.42059036  0.25956540  0.15434180    -0.15200
C862        C  0.41085097  0.28410002  0.16028527    -0.30400
H863        H  0.41373318  0.24896874  0.13637778     0.13800
H864        H  0.41769599  0.29438098  0.17846582     0.14400
C865        C  0.53651038  0.25973407  0.15304007    -0.15200
C866        C  0.55042219  0.28147153  0.16121327    -0.30400
H867        H  0.54013690  0.25108207  0.13317545     0.13800
H868        H  0.54762973  0.28915286  0.18162470     0.14400
C869        C  0.53841435  0.19123563  0.24986719    -0.15200
C870        C  0.54771720  0.16604339  0.24683644    -0.30400
H871        H  0.54597500  0.20375100  0.26621776     0.13800
H872        H  0.53970095  0.15334895  0.23081470     0.14400
C873        C  0.25022448  0.17022000  0.40303244    -0.15200
C874        C  0.25409683  0.19536218  0.41224892    -0.30400
H875        H  0.23363756  0.15833712  0.41095046     0.13800
H876        H  0.27082698  0.20729700  0.40477583     0.14400
C877        C  0.41188191  0.16523882  0.24615645    -0.15200
C878        C  0.42110543  0.19032115  0.25024909    -0.30400
H879        H  0.42005107  0.15318115  0.22973328     0.13800
H880        H  0.41334347  0.20233745  0.26687160     0.14400
C881        C  0.24801508  0.83062992  0.41825132    -0.15200
C882        C  0.25599035  0.80716842  0.42904627    -0.30400
H883        H  0.23057938  0.84108114  0.42641124     0.13800
H884        H  0.27413369  0.79744304  0.42161531     0.14400
C885        C  0.41219422  0.82261863  0.23502144    -0.15200
C886        C  0.39685362  0.81415556  0.25574348    -0.30400
H887        H  0.40974246  0.84279159  0.22702723     0.13800
H888        H  0.39934909  0.79384330  0.26342009     0.14400
C889        C  0.71720029  0.82356429  0.42169344    -0.15200
C890        C  0.69303590  0.81567812  0.41225477    -0.30400
H891        H  0.72558984  0.84270117  0.41535611     0.13800
H892        H  0.68509091  0.79606083  0.41769191     0.14400
C893        C  0.81194505  0.73717368  0.52764597    -0.15200
C894        C  0.80237588  0.71684563  0.54267915    -0.30400
H895        H  0.83265991  0.74379605  0.53018887     0.13800
H896        H  0.78143968  0.71076849  0.54045232     0.14400
C897        C  0.73553663  0.82595276  0.53667359    -0.15200
C898        C  0.71561101  0.81676302  0.55248613    -0.30400
H899        H  0.74380890  0.84593551  0.53982245     0.13800
H900        H  0.70816574  0.79639212  0.54962894     0.14400
C901        C  0.79158716  0.73177402  0.41184791    -0.15200
C902        C  0.81555538  0.73631670  0.40025697    -0.30400
H903        H  0.77978613  0.71425014  0.40616683     0.13800
H904        H  0.82759415  0.75344478  0.40669337     0.14400
C905        C  0.43484354  0.72947807  0.80545486    -0.15200
C906        C  0.42273681  0.70709496  0.79632284    -0.30400
H907        H  0.42968104  0.73753468  0.82518742     0.13800
H908        H  0.42740355  0.69937199  0.77629539     0.14400
C909        C  0.54286674  0.82170782  0.72101593    -0.15200
C910        C  0.55658951  0.81310665  0.69935083    -0.30400
H911        H  0.54663770  0.84161861  0.72925836     0.13800
H912        H  0.55359769  0.79277280  0.69182002     0.14400
C913        C  0.55222545  0.73420237  0.79824592    -0.15200
C914        C  0.56222027  0.73926157  0.82301043    -0.30400
H915        H  0.56014127  0.71749242  0.78653574     0.13800
H916        H  0.55381828  0.75545782  0.83514800     0.14400
C917        C  0.42656713  0.81130151  0.72223818    -0.15200
C918        C  0.41753953  0.83633855  0.72693256    -0.30400
H919        H  0.41831107  0.79970275  0.70554519     0.13800
H920        H  0.42657208  0.84850134  0.74283102     0.14400
C921        C  0.73124827  0.56001398  0.81950799    -0.15200
C922        C  0.70968018  0.57324428  0.80979686    -0.30400
H923        H  0.73839194  0.56400528  0.83991403     0.13800
H924        H  0.70333333  0.57016529  0.78895780     0.14400
C925        C  0.81585620  0.44804753  0.73052726    -0.15200
C926        C  0.80559613  0.43656485  0.70811635    -0.30400
H927        H  0.83596125  0.44273561  0.73742672     0.13800
H928        H  0.78514768  0.44136161  0.70183228     0.14400
C929        C  0.73259384  0.44449782  0.81602530    -0.15200
C930        C  0.71086500  0.43281929  0.80469696    -0.30400
H931        H  0.73896104  0.43910563  0.83634680     0.13800
H932        H  0.70528862  0.43778799  0.78401754     0.14400
C933        C  0.81239453  0.56309030  0.73274288    -0.15200
C934        C  0.80188159  0.57388923  0.71013545    -0.30400
H935        H  0.83223012  0.56912274  0.73981845     0.13800
H936        H  0.78170209  0.56835319  0.70356727     0.14400
loop_ 
_geom_bond_atom_site_label_1 
_geom_bond_atom_site_label_2 
_geom_bond_distance 
_geom_bond_site_symmetry_2 
_ccdc_geom_bond_type 
O1           Cu9   2.017       .  S
O1           C11   1.278       .  A
O2           Cu9   2.022       .  S
O2           C12   1.278       .  A
O3           Cu9   2.014       .  S
O3           C13   1.277       .  A
O4           Cu9   2.010       .  S
O4           C14   1.277       .  A
O5          Cu10   2.009       .  S
O5           C14   1.278       .  A
O6          Cu10   2.009       .  S
O6           C13   1.279       .  A
O7          Cu10   1.990       .  S
O7           C12   1.277       .  A
O8          Cu10   1.989       .  S
O8           C11   1.276       .  A
Cu9         Cu10   2.374       .  S
C11         C933   1.472       .  S
C12         C929   1.476       .  S
C13         C925   1.478       .  S
C14         C921   1.474       .  S
O15         Cu23   2.016       .  S
O15          C25   1.280       .  A
O16         Cu23   2.018       .  S
O16          C26   1.280       .  A
O17         Cu23   1.987       .  S
O17          C27   1.274       .  A
O18         Cu23   1.989       .  S
O18          C28   1.274       .  A
O19         Cu24   2.034       .  S
O19          C28   1.282       .  A
O20         Cu24   2.030       .  S
O20          C27   1.281       .  A
O21         Cu24   1.991       .  S
O21          C26   1.275       .  A
O22         Cu24   1.990       .  S
O22          C25   1.274       .  A
Cu23        Cu24   2.376       .  S
C25         C909   1.470       .  S
C26         C905   1.470       .  S
C27         C917   1.471       .  S
C28         C913   1.475       .  S
O29         Cu37   2.014       .  S
O29          C39   1.277       .  A
O30         Cu37   2.011       .  S
O30          C40   1.280       .  A
O31         Cu37   2.004       .  S
O31          C41   1.276       .  A
O32         Cu37   2.009       .  S
O32          C42   1.276       .  A
O33         Cu38   2.019       .  S
O33          C42   1.280       .  A
O34         Cu38   2.019       .  S
O34          C41   1.279       .  A
O35         Cu38   2.000       .  S
O35          C40   1.275       .  A
O36         Cu38   1.997       .  S
O36          C39   1.278       .  A
Cu37        Cu38   2.374       .  S
C39         C897   1.476       .  S
C40         C901   1.474       .  S
C41         C889   1.475       .  S
C42         C893   1.479       .  S
N43          N44   1.321       .  A
N43          C47   1.343       .  A
N43         Cu51   2.071       .  S
N44          C45   1.347       .  A
N44         Cu50   2.075       .  S
C45          C46   1.383       .  A
C45          H48   1.082       .  S
C46         C881   1.479       .  S
C46          C47   1.386       .  A
C47          H49   1.081       .  S
Cu50         N53   2.075       .  S
Cu51         N61   2.071       .  S
Cu52         N54   2.077       .  S
Cu52         N60   2.077       .  S
N53          N54   1.323       .  A
N53          C57   1.344       .  A
N54          C55   1.346       .  A
C55          C56   1.383       .  A
C55          H58   1.082       .  S
C56          C57   1.383       .  A
C56          C80   1.471   1_565  S
C57          H59   1.082       .  S
N60          N61   1.322       .  A
N60          C64   1.347       .  A
N61          C62   1.343       .  A
C62          C63   1.381       .  A
C62          H65   1.082       .  S
C63         C886   1.476       .  S
C63          C64   1.387       .  A
C64          H66   1.081       .  S
N67          N68   1.322       .  A
N67          C71   1.349       .  A
N67         Cu75   2.084       .  S
N68          C69   1.342       .  A
N68         Cu74   2.067       .  S
C69          C70   1.379       .  A
C69          H72   1.082       .  S
C70         C873   1.477       .  S
C70          C71   1.389       .  A
C71          H73   1.082       .  S
Cu74         N77   2.067       .  S
Cu75         N85   2.085       .  S
Cu76         N78   2.071       .  S
Cu76         N84   2.072       .  S
N77          N78   1.320       .  A
N77          C81   1.344       .  A
N78          C79   1.346       .  A
C79          C80   1.384       .  A
C79          H82   1.082       .  S
C80          C81   1.383       .  A
C81          H83   1.082       .  S
N84          N85   1.324       .  A
N84          C88   1.343       .  A
N85          C86   1.347       .  A
C86          C87   1.387       .  A
C86          H89   1.081       .  S
C87         C877   1.477       .  S
C87          C88   1.380       .  A
C88          H90   1.082       .  S
O91         Cu99   2.012       .  S
O91         C101   1.279       .  A
O92         Cu99   2.015       .  S
O92         C102   1.277       .  A
O93         Cu99   2.023       .  S
O93         C103   1.280       .  A
O94         Cu99   2.019       .  S
O94         C104   1.278       .  A
O95        Cu100   2.001       .  S
O95         C104   1.278       .  A
O96        Cu100   2.002       .  S
O96         C103   1.276       .  A
O97        Cu100   2.007       .  S
O97         C102   1.279       .  A
O98        Cu100   2.009       .  S
O98         C101   1.277       .  A
Cu99       Cu100   2.374       .  S
C101        C878   1.476       .  S
C102        C865   1.478       .  S
C103        C869   1.477       .  S
C104        C861   1.478       .  S
N105        N106   1.323       .  A
N105        C109   1.346       .  A
N105       Cu113   2.075       .  S
N106        C107   1.345       .  A
N106       Cu112   2.082       .  S
C107        C108   1.386       .  A
C107        H110   1.081       .  S
C108        C890   1.479       .  S
C108        C109   1.382       .  A
C109        H111   1.082       .  S
Cu112       N115   2.081       .  S
Cu113       N123   2.073       .  S
Cu114       N116   2.065       .  S
Cu114       N122   2.065       .  S
N115        N116   1.321       .  A
N115        C119   1.349       .  A
N116        C117   1.342       .  A
C117        C118   1.382       .  A
C117        H120   1.082       .  S
C118        C119   1.386       .  A
C118        C142   1.473   1_565  S
C119        H121   1.082       .  S
N122        N123   1.321       .  A
N122        C126   1.343       .  A
N123        C124   1.345       .  A
C124        C125   1.386       .  A
C124        H127   1.081       .  S
C125        C857   1.473       .  S
C125        C126   1.380       .  A
C126        H128   1.082       .  S
N129        N130   1.324       .  A
N129        C133   1.346       .  A
N129       Cu137   2.081       .  S
N130        C131   1.346       .  A
N130       Cu136   2.084       .  S
C131        C132   1.387       .  A
C131        H134   1.082       .  S
C132        C853   1.480       .  S
C132        C133   1.382       .  A
C133        H135   1.082       .  S
Cu136       N139   2.083       .  S
Cu137       N147   2.081       .  S
Cu138       N140   2.067       .  S
Cu138       N146   2.067       .  S
N139        N140   1.322       .  A
N139        C143   1.349       .  A
N140        C141   1.342       .  A
C141        C142   1.382       .  A
C141        H144   1.082       .  S
C142        C143   1.386       .  A
C143        H145   1.082       .  S
N146        N147   1.321       .  A
N146        C150   1.344       .  A
N147        C148   1.347       .  A
C148        C149   1.389       .  A
C148        H151   1.081       .  S
C149        C870   1.480       .  S
C149        C150   1.381       .  A
C150        H152   1.082       .  S
O153       Cu161   2.007       .  S
O153        C163   1.276       .  A
O154       Cu161   2.008       .  S
O154        C164   1.278       .  A
O155       Cu161   2.022       .  S
O155        C165   1.280       .  A
O156       Cu161   2.022       .  S
O156        C166   1.280       .  A
O157       Cu162   2.004       .  S
O157        C166   1.276       .  A
O158       Cu162   2.006       .  S
O158        C165   1.276       .  A
O159       Cu162   2.023       .  S
O159        C164   1.279       .  A
O160       Cu162   2.025       .  S
O160        C163   1.280       .  A
Cu161      Cu162   2.373       .  S
C163        C841   1.479       .  S
C164        C849   1.481       .  S
C165        C846   1.478       .  S
C166        C854   1.477       .  S
N167        N168   1.321       .  A
N167        C171   1.339       .  A
N167       Cu175   2.050       .  S
N168        C169   1.349       .  A
N168       Cu174   2.083       .  S
C169        C170   1.389       .  A
C169        H172   1.082       .  S
C170        C898   1.471       .  S
C170        C171   1.376       .  A
C171        H173   1.082       .  S
Cu174       N177   2.084       .  S
Cu175       N185   2.049       .  S
Cu176       N178   2.077       .  S
Cu176       N184   2.076       .  S
N177        N178   1.325       .  A
N177        C181   1.346       .  A
N178        C179   1.345       .  A
C179        C180   1.382       .  A
C179        H182   1.082       .  S
C180        C181   1.383       .  A
C180        C204   1.473   1_565  S
C181        H183   1.082       .  S
N184        N185   1.320       .  A
N184        C188   1.345       .  A
N185        C186   1.341       .  A
C186        C187   1.377       .  A
C186        H189   1.082       .  S
C187        C910   1.472       .  S
C187        C188   1.388       .  A
C188        H190   1.081       .  S
N191        N192   1.322       .  A
N191        C195   1.344       .  A
N191       Cu199   2.076       .  S
N192        C193   1.348       .  A
N192       Cu198   2.079       .  S
C193        C194   1.387       .  A
C193        H196   1.082       .  S
C194        C850   1.479       .  S
C194        C195   1.382       .  A
C195        H197   1.082       .  S
Cu198       N201   2.079       .  S
Cu199       N209   2.076       .  S
Cu200       N202   2.080       .  S
Cu200       N208   2.079       .  S
N201        N202   1.324       .  A
N201        C205   1.346       .  A
N202        C203   1.346       .  A
C203        C204   1.383       .  A
C203        H206   1.082       .  S
C204        C205   1.383       .  A
C205        H207   1.082       .  S
N208        N209   1.322       .  A
N208        C212   1.347       .  A
N209        C210   1.345       .  A
C210        C211   1.387       .  A
C210        H213   1.081       .  S
C211        C837   1.483       .  S
C211        C212   1.384       .  A
C212        H214   1.082       .  S
N215        N216   1.321       .  A
N215        C219   1.343       .  A
N215       Cu223   2.062       .  S
N216        C217   1.346       .  A
N216       Cu222   2.077       .  S
C217        C218   1.387       .  A
C217        H220   1.082       .  S
C218        C834   1.475       .  S
C218        C219   1.379       .  A
C219        H221   1.082       .  S
Cu222       N225   2.078       .  S
Cu223       N233   2.063       .  S
Cu224       N226   2.077       .  S
Cu224       N232   2.076       .  S
N225        N226   1.324       .  A
N225        C229   1.346       .  A
N226        C227   1.345       .  A
C227        C228   1.382       .  A
C227        H230   1.082       .  S
C228        C229   1.383       .  A
C228        C252   1.472   1_565  S
C229        H231   1.082       .  S
N232        N233   1.321       .  A
N232        C236   1.348       .  A
N233        C234   1.341       .  A
C234        C235   1.386       .  A
C234        H237   1.081       .  S
C235        C918   1.480       .  S
C235        C236   1.385       .  A
C236        H238   1.082       .  S
N239        N240   1.321       .  A
N239        C243   1.344       .  A
N239       Cu247   2.068       .  S
N240        C241   1.345       .  A
N240       Cu246   2.077       .  S
C241        C242   1.388       .  A
C241        H244   1.081       .  S
C242        C829   1.479       .  S
C242        C243   1.381       .  A
C243        H245   1.082       .  S
Cu246       N249   2.077       .  S
Cu247       N257   2.068       .  S
Cu248       N250   2.076       .  S
Cu248       N256   2.076       .  S
N249        N250   1.323       .  A
N249        C253   1.345       .  A
N250        C251   1.346       .  A
C251        C252   1.383       .  A
C251        H254   1.082       .  S
C252        C253   1.383       .  A
C253        H255   1.082       .  S
N256        N257   1.322       .  A
N256        C260   1.346       .  A
N257        C258   1.343       .  A
C258        C259   1.385       .  A
C258        H261   1.081       .  S
C259        C826   1.477       .  S
C259        C260   1.383       .  A
C260        H262   1.082       .  S
O263       Cu271   2.029       .  S
O263        C273   1.281       .  A
O264       Cu271   2.029       .  S
O264        C274   1.281       .  A
O265       Cu271   1.997       .  S
O265        C275   1.275       .  A
O266       Cu271   2.000       .  S
O266        C276   1.275       .  A
O267       Cu272   2.030       .  S
O267        C276   1.281       .  A
O268       Cu272   2.025       .  S
O268        C275   1.281       .  A
O269       Cu272   1.997       .  S
O269        C274   1.275       .  A
O270       Cu272   2.000       .  S
O270        C273   1.276       .  A
Cu271      Cu272   2.374       .  S
C273        C838   1.477       .  S
C274        C821   1.476       .  S
C275        C830   1.475       .  S
C276        C818   1.478       .  S
O277       Cu285   2.009       .  S
O277        C287   1.278       .  A
O278       Cu285   2.003       .  S
O278        C288   1.276       .  A
O279       Cu285   2.012       .  S
O279        C289   1.280       .  A
O280       Cu285   2.016       .  S
O280        C290   1.277       .  A
O281       Cu286   2.012       .  S
O281        C290   1.279       .  A
O282       Cu286   2.013       .  S
O282        C289   1.277       .  A
O283       Cu286   2.002       .  S
O283        C288   1.278       .  A
O284       Cu286   2.005       .  S
O284        C287   1.277       .  A
Cu285      Cu286   2.375       .  S
C287        C825   1.473       .  S
C288        C813   1.470       .  S
C289        C874   1.479       .  S
C290        C809   1.480       .  S
N291        N292   1.321       .  A
N291        C295   1.342       .  A
N291       Cu299   2.069       .  S
N292        C293   1.347       .  A
N292       Cu298   2.067       .  S
C293        C294   1.385       .  A
C293        H296   1.082       .  S
C294        C930   1.472       .  S
C294        C295   1.381       .  A
C295        H297   1.082       .  S
Cu298       N301   2.068       .  S
Cu299       N309   2.070       .  S
Cu300       N302   2.096       .  S
Cu300       N308   2.095       .  S
N301        N302   1.323       .  A
N301        C305   1.342       .  A
N302        C303   1.350       .  A
C303        C304   1.389       .  A
C303        H306   1.082       .  S
C304        C305   1.380       .  A
C304        C328   1.476       .  S
C305        H307   1.082       .  S
N308        N309   1.323       .  A
N308        C312   1.347       .  A
N309        C310   1.346       .  A
C310        C311   1.381       .  A
C310        H313   1.082       .  S
C311        C817   1.482       .  S
C311        C312   1.390       .  A
C312        H314   1.082       .  S
N315        N316   1.322       .  A
N315        C319   1.343       .  A
N315       Cu323   2.070       .  S
N316        C317   1.348       .  A
N316       Cu322   2.082       .  S
C317        C318   1.387       .  A
C317        H320   1.082       .  S
C318        C866   1.476       .  S
C318        C319   1.380       .  A
C319        H321   1.082       .  S
Cu322       N325   2.083       .  S
Cu323       N333   2.070       .  S
Cu324       N326   2.089       .  S
Cu324       N332   2.088       .  S
N325        N326   1.324       .  A
N325        C329   1.349       .  A
N326        C327   1.345       .  A
C327        C328   1.385   1_554  A
C327        H330   1.082       .  S
C328        C329   1.384   1_556  A
C329        H331   1.082       .  S
N332        N333   1.321       .  A
N332        C336   1.349       .  A
N333        C334   1.344       .  A
C334        C335   1.386       .  A
C334        H337   1.081       .  S
C335        C806   1.484       .  S
C335        C336   1.387       .  A
C336        H338   1.082       .  S
O339       Cu347   2.006       .  S
O339        C349   1.277       .  A
O340       Cu347   2.007       .  S
O340        C350   1.277       .  A
O341       Cu347   2.019       .  S
O341        C351   1.280       .  A
O342       Cu347   2.018       .  S
O342        C352   1.277       .  A
O343       Cu348   2.013       .  S
O343        C352   1.279       .  A
O344       Cu348   2.009       .  S
O344        C351   1.277       .  A
O345       Cu348   2.030       .  S
O345        C350   1.281       .  A
O346       Cu348   2.028       .  S
O346        C349   1.280       .  A
Cu347      Cu348   2.373       .  S
C349        C805   1.478       .  S
C350        C793   1.480       .  S
C351        C802   1.479       .  S
C352        C797   1.481       .  S
N353        N354   1.323       .  A
N353        C357   1.346       .  A
N353       Cu361   2.078       .  S
N354        C355   1.344       .  A
N354       Cu360   2.071       .  S
C355        C356   1.385       .  A
C355        H358   1.081       .  S
C356        C922   1.477       .  S
C356        C357   1.383       .  A
C357        H359   1.082       .  S
Cu360       N363   2.071       .  S
Cu361       N371   2.079       .  S
Cu362       N364   2.075       .  S
Cu362       N370   2.075       .  S
N363        N364   1.322       .  A
N363        C367   1.347       .  A
N364        C365   1.343       .  A
C365        C366   1.383       .  A
C365        H368   1.082       .  S
C366        C367   1.383       .  A
C366        C390   1.472   1_556  S
C367        H369   1.082       .  S
N370        N371   1.322       .  A
N370        C374   1.346       .  A
N371        C372   1.344       .  A
C372        C373   1.389       .  A
C372        H375   1.081       .  S
C373        C914   1.482       .  S
C373        C374   1.383       .  A
C374        H376   1.082       .  S
N377        N378   1.321       .  A
N377        C381   1.346       .  A
N377       Cu385   2.078       .  S
N378        C379   1.344       .  A
N378       Cu384   2.063       .  S
C379        C380   1.381       .  A
C379        H382   1.082       .  S
C380        C789   1.478       .  S
C380        C381   1.388       .  A
C381        H383   1.081       .  S
Cu384       N387   2.063       .  S
Cu385       N395   2.079       .  S
Cu386       N388   2.087       .  S
Cu386       N394   2.087       .  S
N387        N388   1.322       .  A
N387        C391   1.341       .  A
N388        C389   1.349       .  A
C389        C390   1.387       .  A
C389        H392   1.082       .  S
C390        C391   1.380       .  A
C391        H393   1.082       .  S
N394        N395   1.324       .  A
N394        C398   1.347       .  A
N395        C396   1.345       .  A
C396        C397   1.381       .  A
C396        H399   1.082       .  S
C397        C801   1.480       .  S
C397        C398   1.388       .  A
C398        H400   1.082       .  S
N401        N402   1.321       .  A
N401        C405   1.345       .  A
N401       Cu409   2.066       .  S
N402        C403   1.343       .  A
N402       Cu408   2.072       .  S
C403        C404   1.387       .  A
C403        H406   1.081       .  S
C404        C906   1.477       .  S
C404        C405   1.381       .  A
C405        H407   1.081       .  S
Cu408       N411   2.072       .  S
Cu409       N419   2.066       .  S
Cu410       N412   2.068       .  S
Cu410       N418   2.068       .  S
N411        N412   1.322       .  A
N411        C415   1.346       .  A
N412        C413   1.343       .  A
C413        C414   1.382       .  A
C413        H416   1.082       .  S
C414        C415   1.383       .  A
C414        C438   1.469       .  S
C415        H417   1.082       .  S
N418        N419   1.321       .  A
N418        C422   1.345       .  A
N419        C420   1.343       .  A
C420        C421   1.380       .  A
C420        H423   1.082       .  S
C421        C786   1.473       .  S
C421        C422   1.385       .  A
C422        H424   1.081       .  S
N425        N426   1.321       .  A
N425        C429   1.339       .  A
N425       Cu433   2.049       .  S
N426        C427   1.348       .  A
N426       Cu432   2.080       .  S
C427        C428   1.389       .  A
C427        H430   1.082       .  S
C428        C781   1.471       .  S
C428        C429   1.376       .  A
C429        H431   1.082       .  S
Cu432       N435   2.081       .  S
Cu433       N443   2.049       .  S
Cu434       N436   2.073       .  S
Cu434       N442   2.071       .  S
N435        N436   1.325       .  A
N435        C439   1.346       .  A
N436        C437   1.343       .  A
C437        C438   1.380   1_554  A
C437        H440   1.082   1_554  S
C438        C439   1.383   1_556  A
C439        H441   1.082   1_554  S
N442        N443   1.319       .  A
N442        C446   1.347       .  A
N443        C444   1.339       .  A
C444        C445   1.383       .  A
C444        H447   1.081       .  S
C445        C778   1.475       .  S
C445        C446   1.385       .  A
C446        H448   1.082       .  S
O449       Cu457   2.003       .  S
O449        C459   1.276       .  A
O450       Cu457   2.002       .  S
O450        C460   1.278       .  A
O451       Cu457   2.004       .  S
O451        C461   1.279       .  A
O452       Cu457   2.005       .  S
O452        C462   1.276       .  A
O453       Cu458   2.004       .  S
O453        C462   1.278       .  A
O454       Cu458   2.007       .  S
O454        C461   1.276       .  A
O455       Cu458   2.019       .  S
O455        C460   1.278       .  A
O456       Cu458   2.019       .  S
O456        C459   1.280       .  A
Cu457      Cu458   2.375       .  S
C459        C790   1.476       .  S
C460        C885   1.478       .  S
C461        C782   1.474       .  S
C462        C858   1.472       .  S
N463        N464   1.323       .  A
N463        C467   1.345       .  A
N463       Cu471   2.081       .  S
N464        C465   1.347       .  A
N464       Cu470   2.078       .  S
C465        C466   1.383       .  A
C465        H468   1.082       .  S
C466        C822   1.482       .  S
C466        C467   1.388       .  A
C467        H469   1.081       .  S
Cu470       N473   2.078       .  S
Cu471       N481   2.081       .  S
Cu472       N474   2.075       .  S
Cu472       N480   2.075       .  S
N473        N474   1.322       .  A
N473        C477   1.346       .  A
N474        C475   1.345       .  A
C475        C476   1.383       .  A
C475        H478   1.082       .  S
C476        C477   1.384       .  A
C476        C500   1.473       .  S
C477        H479   1.082       .  S
N480        N481   1.322       .  A
N480        C484   1.344       .  A
N481        C482   1.347       .  A
C482        C483   1.385       .  A
C482        H485   1.082       .  S
C483        C773   1.482       .  S
C483        C484   1.387       .  A
C484        H486   1.081       .  S
N487        N488   1.321       .  A
N487        C491   1.342       .  A
N487       Cu495   2.059       .  S
N488        C489   1.348       .  A
N488       Cu494   2.079       .  S
C489        C490   1.388       .  A
C489        H492   1.082       .  S
C490        C862   1.475       .  S
C490        C491   1.379       .  A
C491        H493   1.082       .  S
Cu494       N497   2.080       .  S
Cu495       N505   2.058       .  S
Cu496       N498   2.082       .  S
Cu496       N504   2.080       .  S
N497        N498   1.324       .  A
N497        C501   1.346       .  A
N498        C499   1.346       .  A
C499        C500   1.383   1_554  A
C499        H502   1.082       .  S
C500        C501   1.383   1_556  A
C501        H503   1.082       .  S
N504        N505   1.321       .  A
N504        C508   1.349       .  A
N505        C506   1.340       .  A
C506        C507   1.377       .  A
C506        H509   1.081       .  S
C507        C769   1.473       .  S
C507        C508   1.388       .  A
C508        H510   1.082       .  S
N511        N512   1.322       .  A
N511        C515   1.343       .  A
N511       Cu519   2.072       .  S
N512        C513   1.348       .  A
N512       Cu518   2.081       .  S
C513        C514   1.388       .  A
C513        H516   1.082       .  S
C514        C926   1.477       .  S
C514        C515   1.380       .  A
C515        H517   1.082       .  S
Cu518       N521   2.082       .  S
Cu519       N529   2.072       .  S
Cu520       N522   2.081       .  S
Cu520       N528   2.081       .  S
N521        N522   1.323       .  A
N521        C525   1.345       .  A
N522        C523   1.347       .  A
C523        C524   1.384       .  A
C523        H526   1.082       .  S
C524        C525   1.384       .  A
C524        C548   1.475       .  S
C525        H527   1.082       .  S
N528        N529   1.322       .  A
N528        C532   1.346       .  A
N529        C530   1.345       .  A
C530        C531   1.382       .  A
C530        H533   1.082       .  S
C531        C845   1.480       .  S
C531        C532   1.388       .  A
C532        H534   1.081       .  S
N535        N536   1.322       .  A
N535        C539   1.341       .  A
N535       Cu543   2.059       .  S
N536        C537   1.351       .  A
N536       Cu542   2.094       .  S
C537        C538   1.391       .  A
C537        H540   1.082       .  S
C538        C810   1.477       .  S
C538        C539   1.377       .  A
C539        H541   1.082       .  S
Cu542       N545   2.095       .  S
Cu543       N553   2.059       .  S
Cu544       N546   2.075       .  S
Cu544       N552   2.073       .  S
N545        N546   1.325       .  A
N545        C549   1.348       .  A
N546        C547   1.344       .  A
C547        C548   1.381   1_455  A
C547        H550   1.082       .  S
C548        C549   1.386   1_655  A
C549        H551   1.082       .  S
N552        N553   1.320       .  A
N552        C556   1.346       .  A
N553        C554   1.342       .  A
C554        C555   1.380       .  A
C554        H557   1.082       .  S
C555        C766   1.474       .  S
C555        C556   1.387       .  A
C556        H558   1.081       .  S
O559       Cu567   2.013       .  S
O559        C569   1.277       .  A
O560       Cu567   2.013       .  S
O560        C570   1.277       .  A
O561       Cu567   2.007       .  S
O561        C571   1.276       .  A
O562       Cu567   2.006       .  S
O562        C572   1.277       .  A
O563       Cu568   2.024       .  S
O563        C572   1.280       .  A
O564       Cu568   2.024       .  S
O564        C571   1.281       .  A
O565       Cu568   1.997       .  S
O565        C570   1.277       .  A
O566       Cu568   1.999       .  S
O566        C569   1.278       .  A
Cu567      Cu568   2.374       .  S
C569        C765   1.474       .  S
C570        C785   1.474       .  S
C571        C761   1.479       .  S
C572        C774   1.477       .  S
N573        N574   1.320       .  A
N573        C577   1.345       .  A
N573       Cu581   2.068       .  S
N574        C575   1.342       .  A
N574       Cu580   2.060       .  S
C575        C576   1.383       .  A
C575        H578   1.081       .  S
C576        C934   1.472       .  S
C576        C577   1.383       .  A
C577        H579   1.082       .  S
Cu580       N583   2.061       .  S
Cu581       N591   2.068       .  S
Cu582       N584   2.093       .  S
Cu582       N590   2.093       .  S
N583        N584   1.323       .  A
N583        C587   1.345       .  A
N584        C585   1.347       .  A
C585        C586   1.387       .  A
C585        H588   1.082       .  S
C586        C587   1.380       .  A
C586        C610   1.473       .  S
C587        H589   1.082       .  S
N590        N591   1.323       .  A
N590        C594   1.349       .  A
N591        C592   1.343       .  A
C592        C593   1.379       .  A
C592        H595   1.082       .  S
C593        C894   1.479       .  S
C593        C594   1.390       .  A
C594        H596   1.081       .  S
N597        N598   1.320       .  A
N597        C601   1.345       .  A
N597       Cu605   2.074       .  S
N598        C599   1.344       .  A
N598       Cu604   2.064       .  S
C599        C600   1.381       .  A
C599        H602   1.082       .  S
C600        C757   1.478       .  S
C600        C601   1.388       .  A
C601        H603   1.081       .  S
Cu604       N607   2.064       .  S
Cu605       N615   2.074       .  S
Cu606       N608   2.093       .  S
Cu606       N614   2.093       .  S
N607        N608   1.323       .  A
N607        C611   1.343       .  A
N608        C609   1.348       .  A
C609        C610   1.388   1_455  A
C609        H612   1.082       .  S
C610        C611   1.379   1_655  A
C611        H613   1.082       .  S
N614        N615   1.324       .  A
N614        C618   1.349       .  A
N615        C616   1.344       .  A
C616        C617   1.380       .  A
C616        H619   1.082       .  S
C617        C762   1.481       .  S
C617        C618   1.389       .  A
C618        H620   1.082       .  S
O621       Cu629   2.013       .  S
O621        C631   1.279       .  A
O622       Cu629   2.017       .  S
O622        C632   1.278       .  A
O623       Cu629   1.998       .  S
O623        C633   1.276       .  A
O624       Cu629   1.999       .  S
O624        C634   1.275       .  A
O625       Cu630   2.021       .  S
O625        C634   1.280       .  A
O626       Cu630   2.021       .  S
O626        C633   1.280       .  A
O627       Cu630   2.003       .  S
O627        C632   1.278       .  A
O628       Cu630   2.004       .  S
O628        C631   1.276       .  A
Cu629      Cu630   2.375       .  S
C631        C833   1.474       .  S
C632        C753   1.478       .  S
C633        C882   1.473       .  S
C634        C758   1.475       .  S
N635        N636   1.321       .  A
N635        C639   1.348       .  A
N635       Cu643   2.087       .  S
N636        C637   1.339       .  A
N636       Cu642   2.045       .  S
C637        C638   1.375       .  A
C637        H640   1.082       .  S
C638        C902   1.472       .  S
C638        C639   1.390       .  A
C639        H641   1.082       .  S
Cu642       N645   2.045       .  S
Cu643       N653   2.088       .  S
Cu644       N646   2.086       .  S
Cu644       N652   2.087       .  S
N645        N646   1.321       .  A
N645        C649   1.341       .  A
N646        C647   1.346       .  A
C647        C648   1.387       .  A
C647        H650   1.082       .  S
C648        C649   1.377       .  A
C648        C672   1.467   1_655  S
C649        H651   1.082       .  S
N652        N653   1.325       .  A
N652        C656   1.347       .  A
N653        C654   1.346       .  A
C654        C655   1.388       .  A
C654        H657   1.081       .  S
C655        C794   1.484       .  S
C655        C656   1.384       .  A
C656        H658   1.082       .  S
N659        N660   1.324       .  A
N659        C663   1.348       .  A
N659       Cu667   2.086       .  S
N660        C661   1.343       .  A
N660       Cu666   2.076       .  S
C661        C662   1.380       .  A
C661        H664   1.082       .  S
C662        C754   1.477       .  S
C662        C663   1.387       .  A
C663        H665   1.081       .  S
Cu666       N669   2.075       .  S
Cu667       N677   2.086       .  S
Cu668       N670   2.047       .  S
Cu668       N676   2.048       .  S
N669        N670   1.320       .  A
N669        C673   1.345       .  A
N670        C671   1.342       .  A
C671        C672   1.378       .  A
C671        H674   1.082       .  S
C672        C673   1.386       .  A
C673        H675   1.082       .  S
N676        N677   1.322       .  A
N676        C680   1.339       .  A
N677        C678   1.348       .  A
C678        C679   1.390       .  A
C678        H681   1.081       .  S
C679        C749   1.472       .  S
C679        C680   1.375       .  A
C680        H682   1.082       .  S
N683        N684   1.325       .  A
N683        C687   1.347       .  A
N683       Cu691   2.094       .  S
N684        C685   1.346       .  A
N684       Cu690   2.081       .  S
C685        C686   1.382       .  A
C685        H688   1.082       .  S
C686        C842   1.483       .  S
C686        C687   1.388       .  A
C687        H689   1.081       .  S
Cu690       N693   2.080       .  S
Cu691       N701   2.093       .  S
Cu692       N694   2.057       .  S
Cu692       N700   2.058       .  S
N693        N694   1.321       .  A
N693        C697   1.346       .  A
N694        C695   1.343       .  A
C695        C696   1.380       .  A
C695        H698   1.082       .  S
C696        C697   1.386       .  A
C696        C720   1.471       .  S
C697        H699   1.082       .  S
N700        N701   1.322       .  A
N700        C704   1.341       .  A
N701        C702   1.351       .  A
C702        C703   1.391       .  A
C702        H705   1.082       .  S
C703        C798   1.478       .  S
C703        C704   1.378       .  A
C704        H706   1.082       .  S
N707        N708   1.321       .  A
N707        C711   1.343       .  A
N707       Cu715   2.060       .  S
N708        C709   1.343       .  A
N708       Cu714   2.064       .  S
C709        C710   1.385       .  A
C709        H712   1.081       .  S
C710        C814   1.471       .  S
C710        C711   1.380       .  A
C711        H713   1.082       .  S
Cu714       N717   2.064       .  S
Cu715       N725   2.061       .  S
Cu716       N718   2.083       .  S
Cu716       N724   2.083       .  S
N717        N718   1.323       .  A
N717        C721   1.344       .  A
N718        C719   1.345       .  A
C719        C720   1.385   1_455  A
C719        H722   1.082       .  S
C720        C721   1.380   1_655  A
C721        H723   1.082       .  S
N724        N725   1.321       .  A
N724        C728   1.347       .  A
N725        C726   1.342       .  A
C726        C727   1.384       .  A
C726        H729   1.081       .  S
C727        C745   1.479       .  S
C727        C728   1.385       .  A
C728        H730   1.082       .  S
O731       Cu739   2.000       .  S
O731        C741   1.276       .  A
O732       Cu739   2.005       .  S
O732        C742   1.277       .  A
O733       Cu739   1.998       .  S
O733        C743   1.278       .  A
O734       Cu739   2.000       .  S
O734        C744   1.275       .  A
O735       Cu740   2.013       .  S
O735        C744   1.280       .  A
O736       Cu740   2.015       .  S
O736        C743   1.277       .  A
O737       Cu740   2.011       .  S
O737        C742   1.278       .  A
O738       Cu740   2.006       .  S
O738        C741   1.278       .  A
Cu739      Cu740   2.375       .  S
C741        C777   1.469       .  S
C742        C746   1.473       .  S
C743        C770   1.477       .  S
C744        C750   1.474       .  S
C745        C746   1.345       .  D
C745        H747   1.086       .  S
C746        H748   1.084       .  S
C749        C750   1.340       .  D
C749        H751   1.087       .  S
C750        H752   1.086       .  S
C753        C754   1.344       .  D
C753        H755   1.086       .  S
C754        H756   1.087       .  S
C757        C758   1.342       .  D
C757        H759   1.086       .  S
C758        H760   1.085       .  S
C761        C762   1.343       .  D
C761        H763   1.086       .  S
C762        H764   1.086       .  S
C765        C766   1.343       .  D
C765        H767   1.086       .  S
C766        H768   1.087       .  S
C769        C770   1.343       .  D
C769        H771   1.086       .  S
C770        H772   1.085       .  S
C773        C774   1.345       .  D
C773        H775   1.086       .  S
C774        H776   1.085       .  S
C777        C778   1.344       .  D
C777        H779   1.085       .  S
C778        H780   1.086       .  S
C781        C782   1.341       .  D
C781        H783   1.086       .  S
C782        H784   1.085       .  S
C785        C786   1.343       .  D
C785        H787   1.085       .  S
C786        H788   1.087       .  S
C789        C790   1.342       .  D
C789        H791   1.086       .  S
C790        H792   1.086       .  S
C793        C794   1.345       .  D
C793        H795   1.085       .  S
C794        H796   1.086       .  S
C797        C798   1.343       .  D
C797        H799   1.086       .  S
C798        H800   1.087       .  S
C801        C802   1.344       .  D
C801        H803   1.086       .  S
C802        H804   1.085       .  S
C805        C806   1.346       .  D
C805        H807   1.085       .  S
C806        H808   1.086       .  S
C809        C810   1.343       .  D
C809        H811   1.086       .  S
C810        H812   1.087       .  S
C813        C814   1.341       .  D
C813        H815   1.086       .  S
C814        H816   1.087       .  S
C817        C818   1.343       .  D
C817        H819   1.086       .  S
C818        H820   1.085       .  S
C821        C822   1.343       .  D
C821        H823   1.085       .  S
C822        H824   1.086       .  S
C825        C826   1.344       .  D
C825        H827   1.085       .  S
C826        H828   1.086       .  S
C829        C830   1.342       .  D
C829        H831   1.086       .  S
C830        H832   1.085       .  S
C833        C834   1.342       .  D
C833        H835   1.086       .  S
C834        H836   1.087       .  S
C837        C838   1.344       .  D
C837        H839   1.086       .  S
C838        H840   1.085       .  S
C841        C842   1.344       .  D
C841        H843   1.085       .  S
C842        H844   1.086       .  S
C845        C846   1.344       .  D
C845        H847   1.086       .  S
C846        H848   1.086       .  S
C849        C850   1.346       .  D
C849        H851   1.086       .  S
C850        H852   1.086       .  S
C853        C854   1.344       .  D
C853        H855   1.086       .  S
C854        H856   1.086       .  S
C857        C858   1.342       .  D
C857        H859   1.087       .  S
C858        H860   1.086       .  S
C861        C862   1.344       .  D
C861        H863   1.085       .  S
C862        H864   1.086       .  S
C865        C866   1.343       .  D
C865        H867   1.086       .  S
C866        H868   1.086       .  S
C869        C870   1.343       .  D
C869        H871   1.085       .  S
C870        H872   1.086       .  S
C873        C874   1.343       .  D
C873        H875   1.087       .  S
C874        H876   1.086       .  S
C877        C878   1.343       .  D
C877        H879   1.087       .  S
C878        H880   1.085       .  S
C881        C882   1.343       .  D
C881        H883   1.086       .  S
C882        H884   1.085       .  S
C885        C886   1.345       .  D
C885        H887   1.086       .  S
C886        H888   1.087       .  S
C889        C890   1.343       .  D
C889        H891   1.085       .  S
C890        H892   1.086       .  S
C893        C894   1.343       .  D
C893        H895   1.086       .  S
C894        H896   1.087       .  S
C897        C898   1.341       .  D
C897        H899   1.086       .  S
C898        H900   1.087       .  S
C901        C902   1.340       .  D
C901        H903   1.086       .  S
C902        H904   1.087       .  S
C905        C906   1.341       .  D
C905        H907   1.084       .  S
C906        H908   1.086       .  S
C909        C910   1.339       .  D
C909        H911   1.086       .  S
C910        H912   1.087       .  S
C913        C914   1.342       .  D
C913        H915   1.085       .  S
C914        H916   1.086       .  S
C917        C918   1.343       .  D
C917        H919   1.085       .  S
C918        H920   1.086       .  S
C921        C922   1.344       .  D
C921        H923   1.086       .  S
C922        H924   1.086       .  S
C925        C926   1.344       .  D
C925        H927   1.086       .  S
C926        H928   1.087       .  S
C929        C930   1.345       .  D
C929        H931   1.086       .  S
C930        H932   1.087       .  S
C933        C934   1.345       .  D
C933        H935   1.085       .  S
C934        H936   1.087       .  S
