geometry optimzed in LAMMPS
_audit_creation_date              2020-12-01 
_audit_creation_method            'lammps2cif' 
_symmetry_space_group_name_H-M    'P1' 
_symmetry_Int_Tables_number       1 
_symmetry_cell_setting            triclinic 
loop_ 
_symmetry_equiv_pos_as_xyz 
  x,y,z 
_cell_length_a                    43.4164655 
_cell_length_b                    43.42047254904979 
_cell_length_c                    43.85109080595275 
_cell_angle_alpha                 90.19412702032221 
_cell_angle_beta                  89.39820410695305 
_cell_angle_gamma                 121.24472573619016 
loop_ 
_atom_site_label 
_atom_site_type_symbol 
_atom_site_fract_x 
_atom_site_fract_y 
_atom_site_fract_z 
_atom_site_charge 
O1          O  0.16827849  0.61174866  0.25358580    -0.57000
C2          C  0.15606931  0.61757817  0.15275736     0.75600
O3          O  0.07329699  0.60312187  0.21863225    -0.58100
C4          C  0.15889795  0.62451499  0.27554744     0.75600
C5          C  0.18199853  0.70425754  0.20176590     0.78000
Cd6        Cd  0.13951433  0.62874831  0.21360064     1.37500
O7          O  0.16729326  0.60761364  0.17520679    -0.57000
O8          O  0.19479483  0.68595333  0.21197059    -0.55800
C9          C  0.06545135  0.57054579  0.21656031     0.78000
O10         O  0.14784364  0.68844064  0.19992931    -0.58200
O11         O  0.13734510  0.63141304  0.15906950    -0.56600
O12         O  0.14190210  0.63991621  0.26836097    -0.56600
O13         O  0.09175236  0.56591508  0.21319228    -0.55800
O14         O  0.81538118  0.41430614  0.26204382    -0.57000
C15         C  0.82727662  0.40813522  0.16267315     0.75600
O16         O  0.90828350  0.41752143  0.22572944    -0.58100
C17         C  0.82426938  0.40202521  0.28439812     0.75600
C18         C  0.79908428  0.31885469  0.20776217     0.78000
Cd19       Cd  0.84209858  0.39387896  0.22256436     1.37500
O20         O  0.81435986  0.41590112  0.18563835    -0.57000
O21         O  0.78582409  0.33584599  0.22022280    -0.55800
C22         C  0.91695557  0.45035287  0.22375764     0.78000
O23         O  0.83326892  0.33492033  0.20612598    -0.58200
O24         O  0.84690868  0.39527303  0.16822384    -0.56600
O25         O  0.83948458  0.38452758  0.27782337    -0.56600
O26         O  0.89124979  0.45593550  0.22132023    -0.55800
O27         O  0.39871051  0.83849916  0.08807019    -0.57000
C28         C  0.39982203  0.86502887  0.18776062     0.75600
O29         O  0.39787764  0.93064357  0.12195684    -0.58100
C30         C  0.38377004  0.84396804  0.06561856     0.75600
C31         C  0.30339241  0.82241641  0.14712962     0.78000
Cd32       Cd  0.37695526  0.86556842  0.12686300     1.37500
O33         O  0.39881694  0.84250008  0.16845026    -0.57000
O34         O  0.32462970  0.81071184  0.14468534    -0.55800
C35         C  0.43096222  0.94007950  0.11976123     0.78000
O36         O  0.31456078  0.85397136  0.13693738    -0.58200
O37         O  0.39150099  0.88718459  0.17816390    -0.56600
O38         O  0.36395427  0.85662611  0.07217514    -0.56600
O39         O  0.43785729  0.91510282  0.11974197    -0.55800
O40         O  0.58853325  0.18834058  0.09051208    -0.57000
C41         C  0.59737851  0.17934994  0.18924979     0.75600
O42         O  0.58395914  0.09563808  0.12195533    -0.58100
C43         C  0.60233573  0.18111512  0.06792735     0.75600
C44         C  0.68391972  0.20327418  0.14411711     0.78000
Cd45       Cd  0.60909741  0.16172536  0.12923261     1.37500
O46         O  0.58893185  0.19149349  0.16644037    -0.57000
O47         O  0.66763466  0.21702047  0.13161072    -0.55800
C48         C  0.55162389  0.08721971  0.12746824     0.78000
O49         O  0.66725212  0.16905582  0.14569164    -0.58200
O50         O  0.60919512  0.15874839  0.18350881    -0.56600
O51         O  0.62049506  0.16663138  0.07409446    -0.56600
O52         O  0.54699901  0.11293886  0.13399728    -0.55800
O53         O  0.40642786  0.84495541  0.41580489    -0.57000
C54         C  0.42851693  0.86573698  0.31632342     0.75600
O55         O  0.50436457  0.93518045  0.37917965    -0.58100
C56         C  0.42675634  0.84876376  0.43799631     0.75600
C57         C  0.47944225  0.82334979  0.35521496     0.78000
Cd58       Cd  0.45539045  0.87015764  0.37629597     1.37500
O59         O  0.40737768  0.84421672  0.33685382    -0.57000
O60         O  0.44678550  0.81456320  0.35720538    -0.55800
C61         C  0.48231680  0.94628319  0.37997034     0.78000
O62         O  0.50275247  0.85400647  0.36595104    -0.58200
O63         O  0.45998426  0.88940413  0.32444920    -0.56600
O64         O  0.45949060  0.86060177  0.43115878    -0.56600
O65         O  0.44914885  0.92217461  0.38018555    -0.55800
O66         O  0.58926032  0.19693606  0.41827487    -0.57000
C67         C  0.57068472  0.18570670  0.31689835     0.75600
O68         O  0.49707730  0.10640227  0.38106482    -0.58100
C69         C  0.56647748  0.18724697  0.44010651     0.75600
C70         C  0.51899059  0.22133985  0.36584019     0.78000
Cd71       Cd  0.54283315  0.17188358  0.37754027     1.37500
O72         O  0.59234646  0.19557496  0.33925506    -0.57000
O73         O  0.55052910  0.23059634  0.37418998    -0.55800
C74         C  0.51983720  0.09638900  0.37793486     0.78000
O75         O  0.49588781  0.18761390  0.36575489    -0.58200
O76         O  0.53737001  0.16972633  0.32322883    -0.56600
O77         O  0.53364207  0.17201949  0.43255128    -0.56600
O78         O  0.55237463  0.12131189  0.37414097    -0.55800
O79         O  0.40616898  0.60441524  0.26036295    -0.57000
C80         C  0.42870566  0.61406792  0.36005629     0.75600
O81         O  0.49757300  0.60667396  0.29145741    -0.58100
C82         C  0.42772959  0.61839529  0.23776118     0.75600
C83         C  0.47998545  0.70207401  0.30625652     0.78000
Cd84       Cd  0.45414572  0.62725276  0.29843377     1.37500
O85         O  0.40641265  0.60382008  0.33820260    -0.57000
O86         O  0.44769027  0.67841260  0.30014466    -0.55800
C87         C  0.47330566  0.57327706  0.29146762     0.78000
O88         O  0.50257906  0.69167968  0.30721936    -0.58200
O89         O  0.46170823  0.62869040  0.35278726    -0.56600
O90         O  0.46099292  0.63802315  0.24375730    -0.56600
O91         O  0.44122374  0.56579848  0.29565632    -0.55800
O92         O  0.57650811  0.43128900  0.25066170    -0.57000
C93         C  0.54806711  0.42838784  0.35143939     0.75600
O94         O  0.48116456  0.42396548  0.28433198    -0.58100
C95         C  0.55546611  0.41453455  0.22860500     0.75600
C96         C  0.51500754  0.33981042  0.31016799     0.78000
Cd97       Cd  0.52850424  0.40807812  0.28971465     1.37500
O98         O  0.57262757  0.43977176  0.33084809    -0.57000
O99         O  0.54607788  0.36652274  0.30400779    -0.55800
C100        C  0.50409458  0.45780457  0.28353122     0.78000
O101        O  0.48807559  0.34240432  0.30264356    -0.58200
O102        O  0.51573827  0.41009798  0.34253695    -0.56600
O103        O  0.52246196  0.39323735  0.23539780    -0.56600
O104        O  0.53701437  0.46716985  0.28451926    -0.55800
O105        O  0.16929312  0.61099730  0.42505427    -0.57000
C106        C  0.15834938  0.58995827  0.02463716     0.75600
O107        O  0.07843567  0.51506666  0.46021559    -0.58100
C108        C  0.16150768  0.58969780  0.40255691     0.75600
C109        C  0.18866672  0.53266381  0.47637946     0.78000
Cd110      Cd  0.14381903  0.56200877  0.46422854     1.37500
O111        O  0.16899701  0.61200837  0.00232357    -0.57000
O112        O  0.20137801  0.56450824  0.46665179    -0.55800
C113        C  0.06751712  0.53690659  0.46441325     0.78000
O114        O  0.15452361  0.51226194  0.47679163    -0.58200
O115        O  0.14145400  0.55677796  0.01812846    -0.56600
O116        O  0.14705670  0.55652647  0.40895990    -0.56600
O117        O  0.09187238  0.56951451  0.46836736    -0.55800
O118        O  0.81624300  0.42029503  0.43297863    -0.57000
C119        C  0.82707258  0.44145165  0.03560328     0.75600
O120        O  0.90468685  0.51672296  0.47005875    -0.58100
C121        C  0.82535934  0.44241392  0.41085443     0.75600
C122        C  0.78922082  0.48973592  0.47988788     0.78000
Cd123      Cd  0.84019617  0.46757886  0.47294582     1.37500
O124        O  0.81990340  0.42087168  0.01261678    -0.57000
O125        O  0.78058370  0.45779481  0.47333286    -0.55800
C126        C  0.91630854  0.49514141  0.47056371     0.78000
O127        O  0.82275503  0.51314658  0.48144243    -0.58200
O128        O  0.84079237  0.47465160  0.03003277    -0.56600
O129        O  0.84029755  0.47543314  0.41790711    -0.56600
O130        O  0.89268349  0.46193016  0.47260029    -0.55800
O131        O  0.40272891  0.60728880  0.08828124    -0.57000
C132        C  0.39576559  0.58511377  0.48784248     0.75600
O133        O  0.40260242  0.51722205  0.05471430    -0.58100
C134        C  0.39067092  0.58499682  0.11040215     0.75600
C135        C  0.30561925  0.53216400  0.03624757     0.78000
Cd136      Cd  0.38052482  0.55998568  0.04874864     1.37500
O137        O  0.40661723  0.60962535  0.01088499    -0.57000
O138        O  0.32587387  0.56268494  0.04837663    -0.55800
C139        C  0.43566780  0.54161420  0.05083449     0.78000
O140        O  0.31853143  0.51181126  0.03326767    -0.58200
O141        O  0.37954842  0.55167726  0.49337294    -0.56600
O142        O  0.37216062  0.55183766  0.10345754    -0.56600
O143        O  0.44191303  0.57297848  0.04553753    -0.55800
O144        O  0.57654086  0.43473583  0.08029561    -0.57000
C145        C  0.57940907  0.46050517  0.47993738     0.75600
O146        O  0.58231143  0.53010970  0.04808628    -0.58100
C147        C  0.59320313  0.45614024  0.10223988     0.75600
C148        C  0.66953708  0.49973827  0.02548212     0.78000
Cd149      Cd  0.59890941  0.48315218  0.04168456     1.37500
O150        O  0.56887735  0.43811343  0.00091439    -0.57000
O151        O  0.64242627  0.46804140  0.02764955    -0.55800
C152        C  0.54864227  0.50685398  0.05030158     0.78000
O153        O  0.66530437  0.52557414  0.03373116    -0.58200
O154        O  0.59798319  0.49305429  0.48850347    -0.56600
O155        O  0.61336558  0.48917013  0.09533630    -0.56600
O156        O  0.53961485  0.47410631  0.04838414    -0.55800
C157        C  0.46568282  0.53419104  0.05245234     0.00700
C158        C  0.45830176  0.50062754  0.06333362    -0.11200
C159        C  0.48523793  0.49193599  0.06439182     0.02900
C160        C  0.52064393  0.51683949  0.05378462     0.00600
C161        C  0.52854458  0.55103495  0.04437293    -0.11100
C162        C  0.50174318  0.55996072  0.04369395     0.02800
H163        H  0.43129056  0.48094802  0.07112672     0.15800
H164        H  0.55558880  0.57061615  0.03656105     0.15800
C165        C  0.51233250  0.59563162  0.03318191     0.37400
C166        C  0.47508087  0.45454890  0.57966666     0.37300
N167        N  0.52114159  0.62433333  0.02483329    -0.42900
N168        N  0.46780853  0.42738229  0.59070760    -0.42900
C169        C  0.76083695  0.49794088  0.48718967     0.00700
C170        C  0.76687789  0.52431573  0.01321920    -0.11200
C171        C  0.73746509  0.52589715  0.02510072     0.02900
C172        C  0.70321723  0.50485512  0.01185032     0.00600
C173        C  0.69801631  0.48085901  0.48499186    -0.11100
C174        C  0.72685492  0.47884492  0.47308798     0.02800
H175        H  0.79261995  0.53881369  0.02463943     0.15800
H176        H  0.67178068  0.46515833  0.47446593     0.15800
C177        C  0.72042571  0.45611218  0.44684841     0.37400
C178        C  0.74244653  0.54661183  0.05234919     0.37300
N179        N  0.71508915  0.43778347  0.42589364    -0.42900
N180        N  0.74667685  0.56314894  0.07431246    -0.42900
C181        C  0.02858223  0.52572217  0.46509412     0.00700
C182        C  0.01938185  0.55156304  0.47281542    -0.11200
C183        C  0.98333475  0.54266288  0.47450971     0.02900
C184        C  0.95525960  0.50706164  0.46849082     0.00600
C185        C  0.96443063  0.48136962  0.46046664    -0.11100
C186        C  0.00039422  0.49027529  0.45854288     0.02800
H187        H  0.04045963  0.57896763  0.47790206     0.15800
H188        H  0.94451010  0.45818964  0.95451069     0.15800
C189        C  0.00790209  0.46594274  0.94667217     0.37400
C190        C  0.97612339  0.57041382  0.48334745     0.37300
N191        N  0.01253530  0.44368362  0.93734185    -0.42900
N192        N  0.97037801  0.59266916  0.49046406    -0.42900
C193        C  0.21289071  0.52198491  0.48999799     0.00700
C194        C  0.21917562  0.53194456  0.02447193    -0.11200
C195        C  0.24720543  0.53160544  0.03970109     0.02900
C196        C  0.27014990  0.52301044  0.02370546     0.00600
C197        C  0.26283837  0.51277047  0.99285410    -0.11100
C198        C  0.23921410  0.51969116  0.47272949     0.02800
H199        H  0.19447343  0.52373410  0.53543867     0.15800
H200        H  0.28064730  0.50676250  0.98012806     0.15800
C201        C  0.23960461  0.52122091  0.43984421     0.37400
C202        C  0.25277964  0.54175763  0.07145927     0.37300
N203        N  0.24008230  0.52252885  0.41347532    -0.42900
N204        N  0.25703426  0.54996079  0.09690284    -0.42900
C205        C  0.58783887  0.44357336  0.13456476     0.00700
C206        C  0.55895542  0.40888022  0.14177663    -0.11200
C207        C  0.54888673  0.39790618  0.17217193     0.02900
C208        C  0.56836514  0.42163221  0.19630827     0.00600
C209        C  0.59901936  0.45510947  0.18910873    -0.11100
C210        C  0.60864155  0.46642849  0.15878185     0.02800
H211        H  0.54294884  0.39075652  0.12362163     0.15800
H212        H  0.61441871  0.47358154  0.20729046     0.15800
C213        C  0.63905753  0.50234209  0.15359735     0.37400
C214        C  0.51796543  0.36242766  0.17769352     0.37300
N215        N  0.66325142  0.53125996  0.14962244    -0.42900
N216        N  0.49309110  0.33396967  0.18185037    -0.42900
C217        C  0.55626757  0.43552652  0.38444891     0.00700
C218        C  0.58952956  0.46501400  0.39332542    -0.11200
C219        C  0.59775564  0.47325798  0.42421933     0.02900
C220        C  0.57248684  0.45156941  0.44707904     0.00600
C221        C  0.53985512  0.42126841  0.43828518    -0.11100
C222        C  0.53144478  0.41318245  0.40741024     0.02800
H223        H  0.60905389  0.48200465  0.37608124     0.15800
H224        H  0.52047999  0.40421396  0.45560091     0.15800
C225        C  0.49730450  0.38138460  0.40017451     0.37400
C226        C  0.63280028  0.50357576  0.43175958     0.37300
N227        N  0.46992843  0.35596687  0.39434675    -0.42900
N228        N  0.66088965  0.52781510  0.43784035    -0.42900
C229        C  0.41533607  0.61131305  0.20567717     0.00700
C230        C  0.43589067  0.63712173  0.18318621    -0.11200
C231        C  0.42778044  0.62996169  0.15211129     0.02900
C232        C  0.39831982  0.59623674  0.14294513     0.00600
C233        C  0.37728048  0.57087619  0.16561105    -0.11100
C234        C  0.38554381  0.57796144  0.19658461     0.02800
H235        H  0.45906321  0.66271945  0.18985714     0.15800
H236        H  0.35480815  0.54474677  0.15909032     0.15800
C237        C  0.36466302  0.54934875  0.21820897     0.37400
C238        C  0.45158759  0.65695130  0.13031577     0.37300
N239        N  0.34811894  0.52633440  0.23551307    -0.42900
N240        N  0.47091477  0.67866926  0.11301162    -0.42900
C241        C  0.41774234  0.60958302  0.39271306     0.00700
C242        C  0.44400609  0.63104387  0.41440956    -0.11200
C243        C  0.43664279  0.62557186  0.44574712     0.02900
C244        C  0.40271632  0.59754984  0.45587442     0.00600
C245        C  0.37577376  0.57756816  0.43437628    -0.11100
C246        C  0.38273181  0.58370342  0.40304546     0.02800
H247        H  0.47075385  0.65175730  0.40690396     0.15800
H248        H  0.34935420  0.55634321  0.44211886     0.15800
C249        C  0.35380281  0.56199939  0.38229117     0.37400
C250        C  0.46496661  0.64758572  0.46689920     0.37300
N251        N  0.33041067  0.54467796  0.36579829    -0.42900
N252        N  0.48760389  0.66535965  0.48385940    -0.42900
C253        C  0.48118029  0.54384428  0.28710772     0.00700
C254        C  0.45331588  0.50785734  0.29218534    -0.11200
C255        C  0.45932757  0.47911043  0.28963790     0.02900
C256        C  0.49416254  0.48600336  0.28246277     0.00600
C257        C  0.52152549  0.52177767  0.27594898    -0.11100
C258        C  0.51530230  0.55037271  0.27776381     0.02800
H259        H  0.42660514  0.50201047  0.29856255     0.15800
H260        H  0.54821764  0.52763653  0.26947477     0.15800
C261        C  0.54428846  0.58585877  0.26910389     0.37400
C262        C  0.42929555  0.44307729  0.29504066     0.37300
N263        N  0.56744295  0.61420838  0.26184034    -0.42900
N264        N  0.40503301  0.41423721  0.29916650    -0.42900
C265        C  0.51170933  0.30854435  0.32711649     0.00700
C266        C  0.48480247  0.27291600  0.32024584    -0.11200
C267        C  0.48465427  0.24345088  0.33404140     0.02900
C268        C  0.51161516  0.24960336  0.35536820     0.00600
C269        C  0.53638270  0.28523966  0.36388577    -0.11100
C270        C  0.53677120  0.31435863  0.35012820     0.02800
H271        H  0.46497218  0.26807106  0.30309544     0.15800
H272        H  0.55670995  0.29062318  0.38072716     0.15800
C273        C  0.56368216  0.35008562  0.36016143     0.37400
C274        C  0.45782632  0.20752680  0.32464291     0.37300
N275        N  0.58543420  0.37855821  0.36825855    -0.42900
N276        N  0.43617906  0.17876485  0.31706675    -0.42900
C277        C  0.48905761  0.73924698  0.31353325     0.00700
C278        C  0.51043290  0.75716592  0.33903182    -0.11200
C279        C  0.51024825  0.78683027  0.35205243     0.02900
C280        C  0.48837331  0.79865401  0.33944249     0.00600
C281        C  0.47015801  0.78303016  0.31221676    -0.11100
C282        C  0.47045602  0.75381751  0.29915646     0.02800
H283        H  0.52488307  0.74626620  0.35025371     0.15800
H284        H  0.45422671  0.79274791  0.30178241     0.15800
C285        C  0.45006343  0.73822473  0.27165974     0.37400
C286        C  0.53002006  0.80251365  0.37968738     0.37300
N287        N  0.43373308  0.72561548  0.24967733    -0.42900
N288        N  0.54590084  0.81513576  0.40185359    -0.42900
C289        C  0.49353275  0.98515365  0.38028607     0.00700
C290        C  0.46787002  0.99404405  0.38930286    -0.11200
C291        C  0.47557368  0.02964625  0.38871770     0.02900
C292        C  0.50977209  0.05778966  0.37874337     0.00600
C293        C  0.53560751  0.04896295  0.36985053    -0.11100
C294        C  0.52786897  0.01323683  0.37049280     0.02800
H295        H  0.44138330  0.97296236  0.39701580     0.15800
H296        H  0.56203797  0.07005375  0.36203920     0.15800
C297        C  0.55531332  0.00625052  0.36000878     0.37400
C298        C  0.44787793  0.03626543  0.39912471     0.37300
N299        N  0.57735386  0.00074905  0.35153540    -0.42900
N300        N  0.42561768  0.04144644  0.40756761    -0.42900
C301        C  0.58253645  0.19123122  0.28459781     0.00700
C302        C  0.56182953  0.19640928  0.26302313    -0.11200
C303        C  0.56772061  0.19540493  0.23163539     0.02900
C304        C  0.59404432  0.18789019  0.22142559     0.00600
C305        C  0.61637649  0.18531466  0.24303647    -0.11100
C306        C  0.61116135  0.18732414  0.27433002     0.02800
H307        H  0.54018869  0.20023697  0.27075188     0.15800
H308        H  0.63741898  0.18050006  0.23548207     0.15800
C309        C  0.63395242  0.18274118  0.29524645     0.37400
C310        C  0.54530554  0.20047773  0.21066540     0.37300
N311        N  0.65233861  0.17914596  0.31193226    -0.42900
N312        N  0.52749537  0.20488200  0.19392662    -0.42900
C313        C  0.59593214  0.18737158  0.03582321     0.00700
C314        C  0.56373706  0.18598881  0.02889871    -0.11200
C315        C  0.55388796  0.18916083  0.49683410     0.02900
C316        C  0.57727101  0.19173194  0.47285739     0.00600
C317        C  0.61064224  0.19599053  0.48055110    -0.11100
C318        C  0.61978583  0.19197291  0.01162971     0.02800
H319        H  0.54540264  0.18307519  0.04719747     0.15800
H320        H  0.62927991  0.19873287  0.46260406     0.15800
C321        C  0.65464934  0.19658257  0.01725870     0.37400
C322        C  0.52033799  0.18742626  0.49105972     0.37300
N323        N  0.68268207  0.20051392  0.02180596    -0.42900
N324        N  0.49349412  0.18618332  0.48657042    -0.42900
C325        C  0.46072682  0.97829910  0.11907534     0.00700
C326        C  0.45797129  0.00320624  0.13749141    -0.11200
C327        C  0.48738843  0.03833789  0.14119564     0.02900
C328        C  0.52038833  0.04955802  0.12563039     0.00600
C329        C  0.52286313  0.02471982  0.10675607    -0.11100
C330        C  0.49350494  0.98944845  0.10334755     0.02800
H331        H  0.43324957  0.99470080  0.15021246     0.15800
H332        H  0.54767497  0.03298346  0.09428626     0.15800
C333        C  0.49746178  0.96547976  0.08296682     0.37400
C334        C  0.48335051  0.06147359  0.16251206     0.37300
N335        N  0.50052573  0.94625624  0.06658343    -0.42900
N336        N  0.48005613  0.07981013  0.17978119    -0.42900
C337        C  0.40882962  0.86530928  0.22035454     0.00700
C338        C  0.39757163  0.83258656  0.23550251    -0.11200
C339        C  0.40170579  0.83164214  0.26718728     0.02900
C340        C  0.41833800  0.86401466  0.28403236     0.00600
C341        C  0.43014900  0.89665525  0.26878781    -0.11100
C342        C  0.42528778  0.89760335  0.23743814     0.02800
H343        H  0.38449481  0.80760148  0.22274100     0.15800
H344        H  0.44355692  0.92171188  0.28148013     0.15800
C345        C  0.43851891  0.93236974  0.22335715     0.37400
C346        C  0.38976164  0.79736561  0.28162163     0.37300
N347        N  0.44915583  0.96027989  0.21220609    -0.42900
N348        N  0.38009132  0.76981852  0.29311102    -0.42900
C349        C  0.39085572  0.83823291  0.03317658     0.00700
C350        C  0.42246126  0.83817566  0.02591828    -0.11200
C351        C  0.43362942  0.83970977  0.49469206     0.02900
C352        C  0.41340635  0.84169402  0.47039771     0.00600
C353        C  0.38080397  0.83975423  0.47757363    -0.11100
C354        C  0.36875367  0.83650626  0.00887823     0.02800
H355        H  0.43961872  0.83908556  0.04413466     0.15800
H356        H  0.36456180  0.84066445  0.45938272     0.15800
C357        C  0.33484835  0.83438516  0.01433980     0.37400
C358        C  0.46645873  0.83963616  0.48929519     0.37300
N359        N  0.30765935  0.83266151  0.01870707    -0.42900
N360        N  0.49277923  0.83957773  0.48500982    -0.42900
C361        C  0.81913257  0.40946453  0.31665641     0.00700
C362        C  0.82129649  0.44211569  0.32365073    -0.11200
C363        C  0.82197138  0.45284981  0.35400703     0.02900
C364        C  0.82028476  0.43055487  0.37833465     0.00600
C365        C  0.81575724  0.39686102  0.37124245    -0.11100
C366        C  0.81520071  0.38623716  0.34087804     0.02800
H367        H  0.82389331  0.46005921  0.30532336     0.15800
H368        H  0.81373824  0.37908760  0.38948788     0.15800
C369        C  0.81008499  0.35110623  0.33528008     0.37400
C370        C  0.82443555  0.48691761  0.35927946     0.37300
N371        N  0.80575883  0.32284586  0.33082741    -0.42900
N372        N  0.82632954  0.51420107  0.36334945    -0.42900
C373        C  0.82088848  0.42855762  0.06770658     0.00700
C374        C  0.81610664  0.44906969  0.09015667    -0.11200
C375        C  0.81551494  0.44154364  0.12131487     0.02900
C376        C  0.82079676  0.41356974  0.13054548     0.00600
C377        C  0.82322756  0.39165015  0.10809787    -0.11100
C378        C  0.82288174  0.39855821  0.07697859     0.02800
H379        H  0.81369989  0.47173450  0.08335829     0.15800
H380        H  0.82638612  0.36943592  0.11489920     0.15800
C381        C  0.82661343  0.37553631  0.05534540     0.37400
C382        C  0.81121154  0.46400721  0.14317727     0.37300
N383        N  0.82945195  0.35681131  0.03820026    -0.42900
N384        N  0.80751364  0.48185073  0.16070982    -0.42900
C385        C  0.77519255  0.28392288  0.19261930     0.00700
C386        C  0.77683776  0.28293475  0.16061309    -0.11200
C387        C  0.74844504  0.25519414  0.14399475     0.02900
C388        C  0.71864635  0.22681762  0.15948641     0.00600
C389        C  0.71864218  0.22612649  0.19152953    -0.11100
C390        C  0.74607183  0.25481724  0.20812541     0.02800
H391        H  0.79870943  0.30557686  0.14845426     0.15800
H392        H  0.69545906  0.20482490  0.20363233     0.15800
C393        C  0.74259804  0.25493580  0.24089667     0.37400
C394        C  0.74935271  0.25752386  0.11113161     0.37300
N395        N  0.73964586  0.25503384  0.26715135    -0.42900
N396        N  0.75002196  0.25944879  0.08479151    -0.42900
C397        C  0.16562090  0.62003476  0.30812296     0.00700
C398        C  0.17161560  0.59221128  0.31591962    -0.11200
C399        C  0.17256837  0.58335751  0.34652340     0.02900
C400        C  0.16719750  0.60228791  0.37025118     0.00600
C401        C  0.16413695  0.63196412  0.36256175    -0.11100
C402        C  0.16346858  0.64104776  0.33193126     0.02800
H403        H  0.17433569  0.57641202  0.29807172     0.15800
H404        H  0.16084746  0.64731300  0.38049845     0.15800
C405        C  0.16071128  0.67217616  0.32571117     0.37400
C406        C  0.17958395  0.55497622  0.35295897     0.37300
N407        N  0.15873811  0.69724934  0.32069241    -0.42900
N408        N  0.18549681  0.53245421  0.35824723    -0.42900
C409        C  0.16337267  0.61334326  0.12039777     0.00700
C410        C  0.16505644  0.63826227  0.09895158    -0.11200
C411        C  0.16602488  0.63272021  0.06754143     0.02900
C412        C  0.16434432  0.60115764  0.05706308     0.00600
C413        C  0.16505847  0.57749061  0.07853543    -0.11100
C414        C  0.16502251  0.58351360  0.10992420     0.02800
H415        H  0.16458837  0.66174586  0.10676488     0.15800
H416        H  0.16448448  0.55345253  0.07079446     0.15800
C417        C  0.16435282  0.55742546  0.13066762     0.37400
C418        C  0.16668658  0.65879408  0.04677034     0.37300
N419        N  0.16393890  0.53649743  0.14720610    -0.42900
N420        N  0.16740434  0.67980624  0.03014238    -0.42900
C421        C  0.02762405  0.53930706  0.21838806     0.00700
C422        C  0.00046671  0.54482635  0.22961149    -0.11200
C423        C  0.96459944  0.51629984  0.23212172     0.02900
C424        C  0.95505474  0.48095090  0.22348044     0.00600
C425        C  0.98222178  0.47527140  0.21264454    -0.11100
C426        C  0.01802345  0.50391194  0.20965292     0.02800
H427        H  0.00724435  0.57158881  0.23661817     0.15800
H428        H  0.97527175  0.44850715  0.20546485     0.15800
C429        C  0.04377952  0.49615847  0.19620451     0.37400
C430        C  0.93836953  0.52423220  0.24415055     0.37300
N431        N  0.06430553  0.48992714  0.18521602    -0.42900
N432        N  0.91739203  0.53068037  0.25371699    -0.42900
C433        C  0.26856933  0.80027949  0.16335412     0.00700
C434        C  0.23625395  0.78140560  0.14711925    -0.11200
C435        C  0.20529594  0.75232222  0.16079824     0.02900
C436        C  0.20705961  0.74141250  0.19078104     0.00600
C437        C  0.23819085  0.76279042  0.20777843    -0.11100
C438        C  0.26855100  0.79220214  0.19449739     0.02800
H439        H  0.23589432  0.78761523  0.12324327     0.15800
H440        H  0.23960968  0.75505913  0.23099458     0.15800
C441        C  0.29992063  0.81281804  0.21315330     0.37400
C442        C  0.17325251  0.73213191  0.14276585     0.37300
N443        N  0.32446775  0.82935909  0.22873547    -0.42900
N444        N  0.14741700  0.71606596  0.12844408    -0.42900
O445        O  0.17342192  0.61580039  0.75391071    -0.57000
C446        C  0.16033960  0.62011161  0.65307086     0.75600
O447        O  0.07808203  0.60628780  0.71879226    -0.58100
C448        C  0.16320549  0.62778790  0.77587710     0.75600
C449        C  0.18398161  0.70697063  0.70204428     0.78000
Cd450      Cd  0.14383365  0.63163235  0.71390782     1.37500
O451        O  0.17156574  0.61018284  0.67554294    -0.57000
O452        O  0.19783668  0.68976509  0.71254670    -0.55800
C453        C  0.07000653  0.57365557  0.71679637     0.78000
O454        O  0.14981071  0.69006146  0.70004579    -0.58200
O455        O  0.14206904  0.63442150  0.65937604    -0.56600
O456        O  0.14548289  0.64242194  0.76871003    -0.56600
O457        O  0.09611779  0.56871089  0.71357293    -0.55800
O458        O  0.82157578  0.42403857  0.76314213    -0.57000
C459        C  0.83175977  0.41504531  0.66260795     0.75600
O460        O  0.91097684  0.42269931  0.72450137    -0.58100
C461        C  0.82920244  0.41017401  0.78514242     0.75600
C462        C  0.79554532  0.32713384  0.71022396     0.78000
Cd463      Cd  0.84531367  0.40144079  0.72290303     1.37500
O464        O  0.82043146  0.42519240  0.68516459    -0.57000
O465        O  0.78629416  0.34916349  0.71866630    -0.55800
C466        C  0.92052964  0.45584478  0.72312596     0.78000
O467        O  0.82913392  0.33840877  0.71044803    -0.58200
O468        O  0.84994834  0.40067940  0.66875798    -0.56600
O469        O  0.84268636  0.39121738  0.77802267    -0.56600
O470        O  0.89543981  0.46246054  0.72146602    -0.55800
O471        O  0.39913790  0.83916069  0.58718416    -0.57000
C472        C  0.39937102  0.86408866  0.68726752     0.75600
O473        O  0.39725273  0.93056582  0.62168310    -0.58100
C474        C  0.38390239  0.84443669  0.56485376     0.75600
C475        C  0.30354165  0.82385324  0.64604528     0.78000
Cd476      Cd  0.37707850  0.86571719  0.62622125     1.37500
O477        O  0.39744015  0.84110440  0.66799347    -0.57000
O478        O  0.32411388  0.81137300  0.64355896    -0.55800
C479        C  0.43042147  0.94039577  0.61937336     0.78000
O480        O  0.31538448  0.85556997  0.63598058    -0.58200
O481        O  0.39245934  0.88719707  0.67750485    -0.56600
O482        O  0.36377674  0.85665936  0.57161769    -0.56600
O483        O  0.43768432  0.91567431  0.61919336    -0.55800
O484        O  0.58506080  0.18911048  0.58933353    -0.57000
C485        C  0.59017455  0.17296031  0.68975823     0.75600
O486        O  0.58185500  0.09725825  0.62315796    -0.58100
C487        C  0.60081576  0.18361933  0.56720912     0.75600
C488        C  0.67704921  0.21079727  0.64849632     0.78000
Cd489      Cd  0.60533473  0.16306568  0.62871680     1.37500
O490        O  0.58125452  0.18613134  0.66798526    -0.57000
O491        O  0.65478603  0.22064729  0.64315690    -0.55800
C492        C  0.54905380  0.08859288  0.62633155     0.78000
O493        O  0.66832729  0.17903681  0.64034529    -0.58200
O494        O  0.60344095  0.15389834  0.68246434    -0.56600
O495        O  0.62011907  0.17056622  0.57400312    -0.56600
O496        O  0.54349101  0.11418095  0.63045488    -0.55800
O497        O  0.40441778  0.84165156  0.91653290    -0.57000
C498        C  0.42596917  0.86315000  0.81628235     0.75600
O499        O  0.50141332  0.93145780  0.87982777    -0.58100
C500        C  0.42520324  0.84599892  0.93852267     0.75600
C501        C  0.47583306  0.81931794  0.85456653     0.78000
Cd502      Cd  0.45261521  0.86657813  0.87633972     1.37500
O503        O  0.40469420  0.84135387  0.83661808    -0.57000
O504        O  0.44324603  0.81039933  0.85791880    -0.55800
C505        C  0.47930496  0.94248927  0.88094909     0.78000
O506        O  0.49961784  0.85033887  0.86434032    -0.58200
O507        O  0.45737104  0.88667372  0.82468579    -0.56600
O508        O  0.45781552  0.85772034  0.93126223    -0.56600
O509        O  0.44613487  0.91836638  0.88095397    -0.55800
O510        O  0.58748370  0.19291218  0.91953691    -0.57000
C511        C  0.56579327  0.17871629  0.81839615     0.75600
O512        O  0.49424615  0.10274130  0.88365903    -0.58100
C513        C  0.56517026  0.18399387  0.94166234     0.75600
C514        C  0.51978389  0.21984311  0.86702231     0.78000
Cd515      Cd  0.54048134  0.16812456  0.87954891     1.37500
O516        O  0.58833666  0.18907830  0.84013256    -0.57000
O517        O  0.55131094  0.22797582  0.87440649    -0.55800
C518        C  0.51692627  0.09259857  0.88052179     0.78000
O519        O  0.49544862  0.18649281  0.86837530    -0.58200
O520        O  0.53274719  0.16363954  0.82558205    -0.56600
O521        O  0.53222028  0.16933262  0.93458497    -0.56600
O522        O  0.54952371  0.11740881  0.87675940    -0.55800
O523        O  0.40043118  0.59752260  0.75991521    -0.57000
C524        C  0.42473416  0.61090484  0.85999100     0.75600
O525        O  0.49312660  0.60277118  0.79196223    -0.58100
C526        C  0.42209962  0.61168441  0.73739377     0.75600
C527        C  0.47423033  0.69701885  0.80512596     0.78000
Cd528      Cd  0.44865981  0.62204326  0.79811397     1.37500
O529        O  0.40172609  0.59959275  0.83862543    -0.57000
O530        O  0.44179761  0.67316134  0.79963517    -0.55800
C531        C  0.46957678  0.56917968  0.79280098     0.78000
O532        O  0.49692591  0.68674318  0.80565958    -0.58200
O533        O  0.45750274  0.62530263  0.85203255    -0.56600
O534        O  0.45524566  0.63184991  0.74355517    -0.56600
O535        O  0.43725072  0.56093062  0.79703730    -0.55800
O536        O  0.57823903  0.43173793  0.75107660    -0.57000
C537        C  0.55078571  0.42770489  0.85167200     0.75600
O538        O  0.48184992  0.42221017  0.78570965    -0.58100
C539        C  0.55728832  0.41474110  0.72904522     0.75600
C540        C  0.51745927  0.33925107  0.81058015     0.78000
Cd541      Cd  0.53022836  0.40747861  0.79025339     1.37500
O542        O  0.57505247  0.43938105  0.83081744    -0.57000
O543        O  0.54834783  0.36610558  0.80419703    -0.55800
C544        C  0.50420755  0.45618252  0.78532295     0.78000
O545        O  0.49034251  0.34164942  0.80331891    -0.58200
O546        O  0.51832759  0.40918222  0.84315548    -0.56600
O547        O  0.52437160  0.39309002  0.73587539    -0.56600
O548        O  0.53730252  0.46619231  0.78612797    -0.55800
O549        O  0.17131252  0.61244704  0.92519988    -0.57000
C550        C  0.15897211  0.59008148  0.52497508     0.75600
O551        O  0.07932980  0.51653651  0.96042223    -0.58100
C552        C  0.16389191  0.59143913  0.90255700     0.75600
C553        C  0.19029871  0.53501248  0.97771572     0.78000
Cd554      Cd  0.14493603  0.56299889  0.96379875     1.37500
O555        O  0.16914593  0.61178761  0.50244233    -0.57000
O556        O  0.20249317  0.56792413  0.97180075    -0.55800
C557        C  0.06896273  0.53882464  0.96466739     0.78000
O558        O  0.15686803  0.51314727  0.97315866    -0.58200
O559        O  0.14183523  0.55685979  0.51872884    -0.56600
O560        O  0.14923643  0.55818046  0.90866034    -0.56600
O561        O  0.09369230  0.57137674  0.96815075    -0.55800
O562        O  0.81931560  0.42529002  0.93406286    -0.57000
C563        C  0.82719595  0.44133166  0.53445055     0.75600
O564        O  0.90708371  0.52073305  0.97389056    -0.58100
C565        C  0.82937978  0.44809769  0.91239124     0.75600
C566        C  0.79110409  0.49357877  0.98149052     0.78000
Cd567      Cd  0.84224161  0.47129160  0.97509262     1.37500
O568        O  0.81905269  0.41939389  0.51232803    -0.57000
O569        O  0.78270111  0.46199963  0.97384624    -0.55800
C570        C  0.91847137  0.49894847  0.97333868     0.78000
O571        O  0.82455544  0.51666203  0.98446278    -0.58200
O572        O  0.84090024  0.47421320  0.52758008    -0.56600
O573        O  0.84435317  0.48090491  0.92014283    -0.56600
O574        O  0.89466521  0.46574664  0.97443353    -0.55800
O575        O  0.39979023  0.60171351  0.58776991    -0.57000
C576        C  0.39541438  0.58765316  0.98856767     0.75600
O577        O  0.40060931  0.51243669  0.55289518    -0.58100
C578        C  0.38713472  0.57902573  0.60958382     0.75600
C579        C  0.30432679  0.52847199  0.53321296     0.78000
Cd580      Cd  0.37867302  0.55554232  0.54753822     1.37500
O581        O  0.40554447  0.60634691  0.51063913    -0.57000
O582        O  0.32433475  0.55894429  0.54548005    -0.55800
C583        C  0.43378963  0.53711202  0.55052461     0.78000
O584        O  0.31699846  0.50784115  0.53099703    -0.58200
O585        O  0.37849725  0.55435975  0.99475040    -0.56600
O586        O  0.36855980  0.54600794  0.60219329    -0.56600
O587        O  0.44016702  0.56874073  0.54647833    -0.55800
O588        O  0.57775031  0.43318511  0.58076087    -0.57000
C589        C  0.58128953  0.46184591  0.97980701     0.75600
O590        O  0.58106087  0.52703724  0.54845328    -0.58100
C591        C  0.59445243  0.45504009  0.60245511     0.75600
C592        C  0.66846357  0.49663463  0.52482306     0.78000
Cd593      Cd  0.59834158  0.48079874  0.54184810     1.37500
O594        O  0.56729934  0.43637802  0.50072804    -0.57000
O595        O  0.64113826  0.46504820  0.52697448    -0.55800
C596        C  0.54754830  0.50353713  0.55157996     0.78000
O597        O  0.66464945  0.52266696  0.53330235    -0.58200
O598        O  0.59947358  0.49454726  0.98800868    -0.56600
O599        O  0.61402967  0.48806125  0.59525178    -0.56600
O600        O  0.53885706  0.47082847  0.55043837    -0.55800
C601        C  0.46386593  0.52982264  0.55247563     0.00700
C602        C  0.45692471  0.49684787  0.56449112    -0.11200
C603        C  0.48412782  0.48852059  0.56603534     0.02900
C604        C  0.51934182  0.51325857  0.55490402     0.00600
C605        C  0.52674542  0.54687847  0.54430262    -0.11100
C606        C  0.49965909  0.55533897  0.54293127     0.02800
H607        H  0.43007513  0.47738604  0.57277869     0.15800
H608        H  0.55355973  0.56623591  0.53586005     0.15800
C609        C  0.50947087  0.58998193  0.53033656     0.37400
C610        C  0.47573455  0.45743058  0.07713518     0.37300
N611        N  0.51753041  0.61777396  0.52018059    -0.42900
N612        N  0.46813480  0.42985358  0.08749264    -0.42900
C613        C  0.76250666  0.50164747  0.98849814     0.00700
C614        C  0.76555262  0.52067372  0.51193904    -0.11200
C615        C  0.73631870  0.52237600  0.52408325     0.02900
C616        C  0.70193649  0.50144479  0.51101437     0.00600
C617        C  0.69964020  0.48442275  0.98581141    -0.11100
C618        C  0.72866994  0.48259428  0.97410333     0.02800
H619        H  0.79141725  0.53509443  0.52317942     0.15800
H620        H  0.67351328  0.46869715  0.97510713     0.15800
C621        C  0.72252744  0.46011783  0.94773587     0.37400
C622        C  0.74161689  0.54303618  0.55143073     0.37300
N623        N  0.71732066  0.44199066  0.92665932    -0.42900
N624        N  0.74611683  0.55950533  0.57348528    -0.42900
C625        C  0.03022981  0.52821377  0.96603599     0.00700
C626        C  0.02161377  0.55388444  0.97583673    -0.11200
C627        C  0.98574764  0.54544158  0.97828374     0.02900
C628        C  0.95730119  0.51051066  0.97084979     0.00600
C629        C  0.96592348  0.48503667  0.96074799    -0.11100
C630        C  0.00168342  0.49347876  0.95813475     0.02800
H631        H  0.04300986  0.58073575  0.98205158     0.15800
H632        H  0.94330432  0.45396937  0.45538258     0.15800
C633        C  0.00718460  0.46236407  0.44934878     0.37400
C634        C  0.97913218  0.57284637  0.98943512     0.37300
N635        N  0.01233638  0.43982714  0.44184213    -0.42900
N636        N  0.97402724  0.59491499  0.99845743    -0.42900
C637        C  0.21366458  0.52453326  0.99318127     0.00700
C638        C  0.21417470  0.52123092  0.52197210    -0.11200
C639        C  0.24256576  0.52094159  0.53677710     0.02900
C640        C  0.26953965  0.51972075  0.51955457     0.00600
C641        C  0.26673584  0.51772209  0.48757964    -0.11100
C642        C  0.23518123  0.51402311  0.97740559     0.02800
H643        H  0.20288819  0.54032209  0.03668191     0.15800
H644        H  0.28775170  0.51759989  0.47407829     0.15800
C645        C  0.23111098  0.50703143  0.94506096     0.37400
C646        C  0.24446092  0.52380832  0.56958686     0.37300
N647        N  0.22799189  0.50150576  0.91910135    -0.42900
N648        N  0.24591925  0.52623708  0.59588884    -0.42900
C649        C  0.58954535  0.44291886  0.63486818     0.00700
C650        C  0.56087299  0.40823141  0.64233532    -0.11200
C651        C  0.55085544  0.39762497  0.67277739     0.02900
C652        C  0.57016613  0.42173505  0.69674184     0.00600
C653        C  0.60068996  0.45524717  0.68933029    -0.11100
C654        C  0.61030645  0.46616926  0.65890456     0.02800
H655        H  0.54492600  0.38980756  0.62431887     0.15800
H656        H  0.61601541  0.47398052  0.70738616     0.15800
C657        C  0.64073212  0.50199742  0.65338829     0.37400
C658        C  0.52011361  0.36209480  0.67849384     0.37300
N659        N  0.66497263  0.53082391  0.64914093    -0.42900
N660        N  0.49537121  0.33358986  0.68278277    -0.42900
C661        C  0.55935682  0.43494756  0.88455846     0.00700
C662        C  0.59200366  0.46537230  0.89324949    -0.11200
C663        C  0.59997934  0.47421530  0.92408887     0.02900
C664        C  0.57500792  0.45224233  0.94703235     0.00600
C665        C  0.54322303  0.42085572  0.93840157    -0.11100
C666        C  0.53514794  0.41208051  0.90759677     0.02800
H667        H  0.61111433  0.48270866  0.87590365     0.15800
H668        H  0.52419344  0.40346391  0.95577393     0.15800
C669        C  0.50201422  0.37906999  0.90048813     0.37400
C670        C  0.63441924  0.50552772  0.93145817     0.37300
N671        N  0.47547084  0.35265458  0.89475718    -0.42900
N672        N  0.66205173  0.53056444  0.93735198    -0.42900
C673        C  0.41012698  0.60453446  0.70518834     0.00700
C674        C  0.43143815  0.63019722  0.68285828    -0.11200
C675        C  0.42406988  0.62312511  0.65171396     0.02900
C676        C  0.39428449  0.58980203  0.64224637     0.00600
C677        C  0.37249395  0.56450462  0.66470241    -0.11100
C678        C  0.38024760  0.57138211  0.69580539     0.02800
H679        H  0.45478314  0.65556751  0.68971630     0.15800
H680        H  0.34988016  0.53859178  0.65792155     0.15800
C681        C  0.35883185  0.54273834  0.71725194     0.37400
C682        C  0.44921085  0.64958950  0.63020915     0.37300
N683        N  0.34188219  0.51964107  0.73438205    -0.42900
N684        N  0.46971088  0.67082587  0.61317554    -0.42900
C685        C  0.41497953  0.60799414  0.89287703     0.00700
C686        C  0.44277242  0.62830215  0.91379341    -0.11200
C687        C  0.43644487  0.62425586  0.94527328     0.02900
C688        C  0.40183734  0.59910701  0.95640952     0.00600
C689        C  0.37354925  0.58034513  0.93574505    -0.11100
C690        C  0.37963439  0.58493118  0.90420623     0.02800
H691        H  0.46993314  0.64685069  0.90559727     0.15800
H692        H  0.34671820  0.56117678  0.94432255     0.15800
C693        C  0.34932759  0.56462306  0.88432918     0.37400
C694        C  0.46642171  0.64432270  0.96552798     0.37300
N695        N  0.32483930  0.54841475  0.86856328    -0.42900
N696        N  0.49048341  0.66051461  0.98170098    -0.42900
C697        C  0.47856575  0.54042734  0.78915721     0.00700
C698        C  0.45146225  0.50425731  0.79472524    -0.11200
C699        C  0.45841861  0.47611300  0.79237745     0.02900
C700        C  0.49343312  0.48379341  0.78476177     0.00600
C701        C  0.52013286  0.51978176  0.77812308    -0.11100
C702        C  0.51301309  0.54778462  0.77988275     0.02800
H703        H  0.42459387  0.49779276  0.80126957     0.15800
H704        H  0.54699569  0.52626994  0.77152103     0.15800
C705        C  0.54148075  0.58355982  0.77129800     0.37400
C706        C  0.42917109  0.43987573  0.79851405     0.37300
N707        N  0.56421961  0.61216864  0.76416339    -0.42900
N708        N  0.40553464  0.41087286  0.80329453    -0.42900
C709        C  0.51451182  0.30799894  0.82738847     0.00700
C710        C  0.48658624  0.27246228  0.82156768    -0.11200
C711        C  0.48604535  0.24288499  0.83554946     0.02900
C712        C  0.51363456  0.24878161  0.85605947     0.00600
C713        C  0.53979660  0.28443118  0.86336256    -0.11100
C714        C  0.54053291  0.31367632  0.84944577     0.02800
H715        H  0.46607553  0.26770827  0.80515048     0.15800
H716        H  0.56073073  0.28965847  0.87951055     0.15800
C717        C  0.56856335  0.34936570  0.85854946     0.37400
C718        C  0.45807923  0.20699886  0.82715102     0.37300
N719        N  0.59113333  0.37783295  0.86590384    -0.42900
N720        N  0.43557571  0.17825112  0.82037354    -0.42900
C721        C  0.48346012  0.73428928  0.81231044     0.00700
C722        C  0.50595223  0.75269569  0.83713639    -0.11200
C723        C  0.50643311  0.78267601  0.85021544     0.02900
C724        C  0.48406590  0.79432218  0.83838134     0.00600
C725        C  0.46464789  0.77817671  0.81173240    -0.11100
C726        C  0.46431899  0.74866263  0.79858490     0.02800
H727        H  0.52086903  0.74199144  0.84783867     0.15800
H728        H  0.44827822  0.78771983  0.80187389     0.15800
C729        C  0.44285205  0.73264376  0.77166846     0.37400
C730        C  0.52746862  0.79891080  0.87718594     0.37300
N731        N  0.42568792  0.71970955  0.75013123    -0.42900
N732        N  0.54436792  0.81197358  0.89881688    -0.42900
C733        C  0.49049728  0.98132922  0.88182508     0.00700
C734        C  0.46488866  0.99012993  0.89127043    -0.11200
C735        C  0.47257995  0.02574643  0.89099953     0.02900
C736        C  0.50677776  0.05397792  0.88112591     0.00600
C737        C  0.53254958  0.04521882  0.87186219    -0.11100
C738        C  0.52476016  0.00948988  0.87200506     0.02800
H739        H  0.43842089  0.96895565  0.89893226     0.15800
H740        H  0.55893268  0.06635904  0.86400507     0.15800
C741        C  0.55198183  0.00256593  0.86076091     0.37400
C742        C  0.44479896  0.03225821  0.90136637     0.37300
N743        N  0.57380832  0.99710121  0.85161366    -0.42900
N744        N  0.42242929  0.03733145  0.90969923    -0.42900
C745        C  0.57638965  0.18296472  0.78585385     0.00700
C746        C  0.55582772  0.18901254  0.76481140    -0.11200
C747        C  0.56099663  0.18795691  0.73332720     0.02900
C748        C  0.58632436  0.17936260  0.72243056     0.00600
C749        C  0.60825481  0.17537547  0.74355180    -0.11100
C750        C  0.60383140  0.17753806  0.77497059     0.02800
H751        H  0.53509917  0.19396534  0.77304877     0.15800
H752        H  0.62866982  0.16988095  0.73551290     0.15800
C753        C  0.62636109  0.17196281  0.79541773     0.37400
C754        C  0.53922326  0.19471145  0.71296765     0.37300
N755        N  0.64451104  0.16759251  0.81177445    -0.42900
N756        N  0.52198940  0.20049775  0.69669656    -0.42900
C757        C  0.59520022  0.19008039  0.53488773     0.00700
C758        C  0.56297695  0.18831846  0.52731203    -0.11200
C759        C  0.55398084  0.18666969  0.99860132     0.02900
C760        C  0.57665101  0.18867302  0.97421282     0.00600
C761        C  0.61002242  0.19256910  0.98128005    -0.11100
C762        C  0.61973811  0.19520303  0.51110887     0.02800
H763        H  0.54408030  0.18498448  0.54524265     0.15800
H764        H  0.62814516  0.19490864  0.96301103     0.15800
C765        C  0.65458044  0.20005628  0.51734170     0.37400
C766        C  0.52054000  0.18538605  0.99343123     0.37300
N767        N  0.68259532  0.20416327  0.52234078    -0.42900
N768        N  0.49379947  0.18452440  0.98941259    -0.42900
C769        C  0.45983109  0.97877562  0.61861917     0.00700
C770        C  0.45577945  0.00393488  0.63550101    -0.11200
C771        C  0.48453524  0.03949115  0.63877959     0.02900
C772        C  0.51832341  0.05070242  0.62466932     0.00600
C773        C  0.52213022  0.02560284  0.60736635    -0.11100
C774        C  0.49328501  0.99007239  0.60403061     0.02800
H775        H  0.43044430  0.99545445  0.64718152     0.15800
H776        H  0.54752652  0.03392788  0.59588099     0.15800
C777        C  0.49838532  0.96610167  0.58460728     0.37400
C778        C  0.47885169  0.06328111  0.65793207     0.37300
N779        N  0.50229061  0.94688647  0.56890194    -0.42900
N780        N  0.47421317  0.08222885  0.67334909    -0.42900
C781        C  0.40775320  0.86385541  0.72000566     0.00700
C782        C  0.39513971  0.83085485  0.73515890    -0.11200
C783        C  0.39862488  0.82958259  0.76693060     0.02900
C784        C  0.41610932  0.86187306  0.78388509     0.00600
C785        C  0.42907254  0.89474520  0.76865809    -0.11100
C786        C  0.42471761  0.89604009  0.73724893     0.02800
H787        H  0.38146063  0.80593848  0.72233022     0.15800
H788        H  0.44294580  0.91972462  0.78142663     0.15800
C789        C  0.43874620  0.93102162  0.72332516     0.37400
C790        C  0.38492940  0.79499053  0.78138031     0.37300
N791        N  0.44990819  0.95907758  0.71228730    -0.42900
N792        N  0.37378222  0.76719831  0.79291531    -0.42900
C793        C  0.39107003  0.83907409  0.53233336     0.00700
C794        C  0.42230885  0.83830526  0.52511652    -0.11200
C795        C  0.43341916  0.83899757  0.99544332     0.02900
C796        C  0.41246633  0.83969773  0.97113597     0.00600
C797        C  0.37960940  0.83717656  0.97844404    -0.11100
C798        C  0.36960305  0.83856485  0.50796539     0.02800
H799        H  0.43896208  0.83825508  0.54335468     0.15800
H800        H  0.36279882  0.83709774  0.96029161     0.15800
C801        C  0.33615849  0.83745238  0.51327399     0.37400
C802        C  0.46659495  0.83960947  0.99002046     0.37300
N803        N  0.30936138  0.83659600  0.51747100    -0.42900
N804        N  0.49318580  0.84006863  0.98576230    -0.42900
C805        C  0.82445805  0.41729991  0.81761354     0.00700
C806        C  0.82732763  0.45015092  0.82513306    -0.11200
C807        C  0.82787755  0.46033282  0.85564349     0.02900
C808        C  0.82516240  0.43719199  0.87963599     0.00600
C809        C  0.82018379  0.40343979  0.87202059    -0.11100
C810        C  0.81989038  0.39341280  0.84149845     0.02800
H811        H  0.83051733  0.46865337  0.80709605     0.15800
H812        H  0.81752394  0.38509710  0.88999735     0.15800
C813        C  0.81441506  0.35821905  0.83544112     0.37400
C814        C  0.83135378  0.49477112  0.86139929     0.37300
N815        N  0.80986294  0.32992718  0.83066530    -0.42900
N816        N  0.83413611  0.52239445  0.86584281    -0.42900
C817        C  0.82220605  0.43031875  0.56700452     0.00700
C818        C  0.81782185  0.45183155  0.58867897    -0.11200
C819        C  0.81827885  0.44601330  0.62007888     0.02900
C820        C  0.82474196  0.41911917  0.63027769     0.00600
C821        C  0.82672858  0.39617398  0.60863328    -0.11100
C822        C  0.82491316  0.40110733  0.57733902     0.02800
H823        H  0.81461725  0.47375027  0.58104539     0.15800
H824        H  0.83038272  0.37450173  0.61616614     0.15800
C825        C  0.82753558  0.37670357  0.55655011     0.37400
C826        C  0.81302260  0.46859342  0.64110170     0.37300
N827        N  0.82936100  0.35682141  0.54007234    -0.42900
N828        N  0.80834853  0.48638897  0.65794993    -0.42900
C829        C  0.76775888  0.29115134  0.69867442     0.00700
C830        C  0.77387831  0.27822012  0.67112779    -0.11200
C831        C  0.74497979  0.25007607  0.65498054     0.02900
C832        C  0.70956523  0.23484656  0.66639684     0.00600
C833        C  0.70400385  0.24582171  0.69500922    -0.11100
C834        C  0.73262042  0.27333552  0.71127250     0.02800
H835        H  0.80069055  0.29179343  0.66109720     0.15800
H836        H  0.67685114  0.23366039  0.70422622     0.15800
C837        C  0.72506855  0.28357824  0.74052338     0.37400
C838        C  0.75176085  0.23915745  0.62581347     0.37300
N839        N  0.71921258  0.29182071  0.76400644    -0.42900
N840        N  0.75695626  0.23018488  0.60241341    -0.42900
C841        C  0.16967350  0.62309083  0.80842269     0.00700
C842        C  0.17523558  0.59496500  0.81609336    -0.11200
C843        C  0.17558333  0.58561451  0.84662924     0.02900
C844        C  0.17020000  0.60447102  0.87040605     0.00600
C845        C  0.16761841  0.63447077  0.86287540    -0.11100
C846        C  0.16738678  0.64394141  0.83229589     0.02800
H847        H  0.17791620  0.57921438  0.79817592     0.15800
H848        H  0.16426521  0.64971467  0.88087287     0.15800
C849        C  0.16484615  0.67522064  0.82619486     0.37400
C850        C  0.18174510  0.55663075  0.85292367     0.37300
N851        N  0.16302572  0.70041257  0.82133242    -0.42900
N852        N  0.18689334  0.53356656  0.85810014    -0.42900
C853        C  0.16692452  0.61515888  0.62068420     0.00700
C854        C  0.16919058  0.64022568  0.59911408    -0.11200
C855        C  0.16908479  0.63401482  0.56771433     0.02900
C856        C  0.16577569  0.60165596  0.55735160     0.00600
C857        C  0.16588163  0.57773293  0.57893750    -0.11100
C858        C  0.16682293  0.58436294  0.61031134     0.02800
H859        H  0.16998338  0.66437900  0.60684876     0.15800
H860        H  0.16417141  0.55310156  0.57130637     0.15800
C861        C  0.16533853  0.55799219  0.63120750     0.37400
C862        C  0.17047409  0.66039560  0.54688841     0.37300
N863        N  0.16427094  0.53685921  0.64789550    -0.42900
N864        N  0.17179070  0.68169779  0.53025793    -0.42900
C865        C  0.03205833  0.54282912  0.71851008     0.00700
C866        C  0.00528886  0.54923019  0.72909551    -0.11200
C867        C  0.96919960  0.52135620  0.73136177     0.02900
C868        C  0.95892507  0.48575077  0.72289784     0.00600
C869        C  0.98571770  0.47914524  0.71270831    -0.11100
C870        C  0.02188088  0.50715627  0.71021761     0.02800
H871        H  0.01255418  0.57621279  0.73585899     0.15800
H872        H  0.97826878  0.45214079  0.70584706     0.15800
C873        C  0.04748993  0.49844048  0.69803744     0.37400
C874        C  0.94357433  0.53029526  0.74307435     0.37300
N875        N  0.06793425  0.49142212  0.68816094    -0.42900
N876        N  0.92314949  0.53761148  0.75243457    -0.42900
C877        C  0.26880833  0.80249041  0.66240480     0.00700
C878        C  0.23661881  0.78261422  0.64619176    -0.11200
C879        C  0.20593638  0.75372744  0.66028145     0.02900
C880        C  0.20793400  0.74407266  0.69066146     0.00600
C881        C  0.23879547  0.76655263  0.70757703    -0.11100
C882        C  0.26890811  0.79572399  0.69383371     0.02800
H883        H  0.23624177  0.78779771  0.62206668     0.15800
H884        H  0.24036568  0.75968444  0.73105404     0.15800
C885        C  0.30034345  0.81710686  0.71223693     0.37400
C886        C  0.17410313  0.73228271  0.64228012     0.37300
N887        N  0.32497272  0.83423308  0.72758965    -0.42900
N888        N  0.14844143  0.71519193  0.62797431    -0.42900
loop_ 
_geom_bond_atom_site_label_1 
_geom_bond_atom_site_label_2 
_geom_bond_distance 
_geom_bond_site_symmetry_2 
_ccdc_geom_bond_type 
O1            C4   1.274       .  A
O1           Cd6   2.488       .  S
C2           O11   1.265       .  A
C2            O7   1.275       .  A
C2          C409   1.482       .  S
O3            C9   1.275       .  A
O3           Cd6   2.494       .  S
C4           O12   1.269       .  A
C4          C397   1.494       .  S
C5           O10   1.274       .  A
C5            O8   1.267       .  A
C5          C436   1.480       .  S
Cd6          O13   2.424       .  S
Cd6          O12   2.441       .  S
Cd6          O11   2.400       .  S
Cd6           O7   2.495       .  S
Cd6          O10   2.498       .  S
Cd6           O8   2.398       .  S
C9           O13   1.265       .  A
C9          C421   1.493       .  S
O14          C17   1.272       .  A
O14         Cd19   2.479       .  S
C15          O24   1.264       .  A
C15          O20   1.275       .  A
C15         C376   1.483       .  S
O16          C22   1.275       .  A
O16         Cd19   2.505       .  S
C17          O25   1.270       .  A
C17         C361   1.490       .  S
C18          O23   1.272       .  A
C18          O21   1.267       .  A
C18         C385   1.481       .  S
Cd19         O26   2.419       .  S
Cd19         O25   2.450       .  S
Cd19         O24   2.388       .  S
Cd19         O20   2.497       .  S
Cd19         O23   2.489       .  S
Cd19         O21   2.438       .  S
C22          O26   1.265       .  A
C22         C424   1.490       .  S
O27          C30   1.273       .  A
O27         Cd32   2.504       .  S
C28          O37   1.265       .  A
C28          O33   1.275       .  A
C28         C337   1.484       .  S
O29          C35   1.276       .  A
O29         Cd32   2.489       .  S
C30          O38   1.269       .  A
C30         C349   1.499       .  S
C31          O36   1.274       .  A
C31          O34   1.266       .  A
C31         C433   1.480       .  S
Cd32         O39   2.409       .  S
Cd32         O38   2.453       .  S
Cd32         O37   2.396       .  S
Cd32         O33   2.503       .  S
Cd32         O36   2.520       .  S
Cd32         O34   2.410       .  S
C35          O39   1.266       .  A
C35         C325   1.483       .  S
O40          C43   1.272       .  A
O40         Cd45   2.476       .  S
C41          O50   1.264       .  A
C41          O46   1.275       .  A
C41         C304   1.482       .  S
O42          C48   1.274       .  A
O42         Cd45   2.506       .  S
C43          O51   1.269       .  A
C43         C313   1.491       .  S
C44          O49   1.273       .  A
C44          O47   1.267       .  A
C44         C388   1.480       .  S
Cd45         O52   2.422       .  S
Cd45         O51   2.451       .  S
Cd45         O50   2.384       .  S
Cd45         O46   2.496       .  S
Cd45         O49   2.490       .  S
Cd45         O47   2.431       .  S
C48          O52   1.264       .  A
C48         C328   1.490       .  S
O53          C56   1.272       .  A
O53         Cd58   2.498       .  S
C54          O63   1.265       .  A
C54          O59   1.275       .  A
C54         C340   1.478       .  S
O55          C61   1.276       .  A
O55         Cd58   2.507       .  S
C56          O64   1.268       .  A
C56         C352   1.500       .  S
C57          O62   1.275       .  A
C57          O60   1.265       .  A
C57         C280   1.483       .  S
Cd58         O65   2.416       .  S
Cd58         O64   2.467       .  S
Cd58         O63   2.395       .  S
Cd58         O59   2.496       .  S
Cd58         O62   2.530       .  S
Cd58         O60   2.393       .  S
C61          O65   1.267       .  A
C61         C289   1.494       .  S
O66          C69   1.274       .  A
O66         Cd71   2.495       .  S
C67          O76   1.266       .  A
C67          O72   1.276       .  A
C67         C301   1.479       .  S
O68          C74   1.275       .  A
O68         Cd71   2.488       .  S
C69          O77   1.269       .  A
C69         C316   1.496       .  S
C70          O75   1.275       .  A
C70          O73   1.269       .  A
C70         C268   1.495       .  S
Cd71         O78   2.440       .  S
Cd71         O77   2.441       .  S
Cd71         O76   2.393       .  S
Cd71         O72   2.478       .  S
Cd71         O75   2.521       .  S
Cd71         O73   2.398       .  S
C74          O78   1.267       .  A
C74         C292   1.497       .  S
O79          C82   1.274       .  A
O79         Cd84   2.455       .  S
C80          O89   1.267       .  A
C80          O85   1.274       .  A
C80         C241   1.485       .  S
O81          C87   1.276       .  A
O81         Cd84   2.486       .  S
C82          O90   1.269       .  A
C82         C229   1.485       .  S
C83          O88   1.276       .  A
C83          O86   1.267       .  A
C83         C277   1.484       .  S
Cd84         O91   2.428       .  S
Cd84         O90   2.430       .  S
Cd84         O89   2.406       .  S
Cd84         O85   2.474       .  S
Cd84         O88   2.511       .  S
Cd84         O86   2.380       .  S
C87          O91   1.267       .  A
C87         C253   1.496       .  S
O92          C95   1.274       .  A
O92         Cd97   2.460       .  S
C93         O102   1.267       .  A
C93          O98   1.278       .  A
C93         C217   1.487       .  S
O94         C100   1.278       .  A
O94         Cd97   2.498       .  S
C95         O103   1.271       .  A
C95         C208   1.491       .  S
C96         O101   1.278       .  A
C96          O99   1.269       .  A
C96         C265   1.490       .  S
Cd97        O104   2.406       .  S
Cd97        O103   2.446       .  S
Cd97        O102   2.388       .  S
Cd97         O98   2.478       .  S
Cd97        O101   2.516       .  S
Cd97         O99   2.383       .  S
C100        O104   1.268       .  A
C100        C256   1.495       .  S
O105        C108   1.273       .  A
O105       Cd110   2.499       .  S
C106        O115   1.265       .  A
C106        O111   1.275       .  A
C106        C412   1.483       .  S
O107        C113   1.273       .  A
O107       Cd110   2.500       .  S
C108        O116   1.268       .  A
C108        C400   1.491       .  S
C109        O114   1.273       .  A
C109        O112   1.267       .  A
C109        C193   1.483       .  S
Cd110       O117   2.445       .  S
Cd110       O116   2.444       .  S
Cd110       O114   2.498       .  S
Cd110       O112   2.448       .  S
Cd110       O559   2.398       .  S
Cd110       O555   2.497       .  S
O111       Cd554   2.486   1_554  S
C113        O117   1.266       .  A
C113        C181   1.497       .  S
O115       Cd554   2.393   1_554  S
O118        C121   1.274       .  A
O118       Cd123   2.483       .  S
C119        O128   1.265       .  A
C119        O124   1.274       .  A
C119        C373   1.486       .  S
O120        C126   1.274       .  A
O120       Cd123   2.491       .  S
C121        O129   1.268       .  A
C121        C364   1.494       .  S
C122        O127   1.274       .  A
C122        O125   1.268       .  A
C122        C169   1.481       .  S
Cd123       O130   2.415       .  S
Cd123       O129   2.438       .  S
Cd123       O127   2.484       .  S
Cd123       O125   2.395       .  S
Cd123       O572   2.411       .  S
Cd123       O568   2.490       .  S
O124       Cd567   2.496   1_554  S
C126        O130   1.267       .  A
C126        C184   1.492       .  S
O128       Cd567   2.415   1_554  S
O131        C134   1.274       .  A
O131       Cd136   2.472       .  S
C132        O141   1.265       .  A
C132        O581   1.275       .  A
C132        C244   1.475       .  S
O133        C139   1.277       .  A
O133       Cd136   2.508       .  S
C134        O142   1.270       .  A
C134        C232   1.491       .  S
C135        O140   1.274       .  A
C135        O138   1.268       .  A
C135        C196   1.488       .  S
Cd136       O143   2.424       .  S
Cd136       O142   2.422       .  S
Cd136       O137   2.477       .  S
Cd136       O140   2.504       .  S
Cd136       O138   2.436       .  S
Cd136       O585   2.377   1_554  S
O137        C576   1.275   1_554  A
C139        O143   1.265       .  A
C139        C157   1.498       .  S
O141       Cd580   2.382       .  S
O144        C147   1.274       .  A
O144       Cd149   2.470       .  S
C145        O154   1.269       .  A
C145        O594   1.277       .  A
C145        C220   1.484       .  S
O146        C152   1.278       .  A
O146       Cd149   2.504       .  S
C147        O155   1.269       .  A
C147        C205   1.493       .  S
C148        O153   1.278       .  A
C148        O151   1.268       .  A
C148        C172   1.480       .  S
Cd149       O156   2.409       .  S
Cd149       O155   2.420       .  S
Cd149       O150   2.470       .  S
Cd149       O153   2.510       .  S
Cd149       O151   2.374       .  S
Cd149       O598   2.404   1_554  S
O150        C589   1.276   1_554  A
C152        O156   1.267       .  A
C152        C160   1.494       .  S
O154       Cd593   2.403       .  S
C157        C158   1.404       .  A
C157        C162   1.423       .  A
C158        C159   1.404       .  A
C158        H163   1.085       .  S
C159        C160   1.419       .  A
C159        C610   1.445       .  S
C160        C161   1.402       .  A
C161        C162   1.405       .  A
C161        H164   1.085       .  S
C162        C165   1.444       .  S
C165        N167   1.157       .  T
C166        C603   1.445       .  S
C166        N168   1.158       .  T
C169        C174   1.412       .  A
C169        C614   1.408       .  A
C170        C171   1.408       .  A
C170        C613   1.408   1_554  A
C170        H175   1.084       .  S
C171        C172   1.410       .  A
C171        C178   1.442       .  S
C172        C617   1.403   1_554  A
C173        C174   1.395       .  A
C173        C616   1.403       .  A
C173        H176   1.086       .  S
C174        C177   1.445       .  S
C177        N179   1.157       .  T
C178        N180   1.157       .  T
C181        C182   1.412       .  A
C181        C186   1.414       .  A
C182        C183   1.405   1_455  A
C182        H187   1.084       .  S
C183        C184   1.412       .  A
C183        C190   1.444       .  S
C184        C185   1.408       .  A
C185        C186   1.402   1_655  A
C185        H632   1.085       .  S
C186        C633   1.443       .  S
H188        C629   1.085       .  S
C189        C630   1.443       .  S
C189        N191   1.157       .  T
C190        N192   1.157       .  T
C193        C198   1.410       .  A
C193        C638   1.405       .  A
C194        C195   1.401       .  A
C194        C637   1.403   1_554  A
C194        H643   1.085       .  S
C195        C196   1.412       .  A
C195        C202   1.444       .  S
C196        C197   1.410   1_554  A
C197        C642   1.410       .  A
C197        H200   1.085       .  S
C198        C641   1.408       .  A
C198        C201   1.443       .  S
H199        C638   1.085       .  S
C201        N203   1.157       .  T
C202        N204   1.157       .  T
C205        C206   1.406       .  A
C205        C210   1.418       .  A
C206        C207   1.404       .  A
C206        H211   1.084       .  S
C207        C208   1.416       .  A
C207        C214   1.444       .  S
C208        C209   1.404       .  A
C209        C210   1.402       .  A
C209        H212   1.085       .  S
C210        C213   1.445       .  S
C213        N215   1.157       .  T
C214        N216   1.157       .  T
C217        C218   1.402       .  A
C217        C222   1.420       .  A
C218        C219   1.402       .  A
C218        H223   1.085       .  S
C219        C220   1.417       .  A
C219        C226   1.445       .  S
C220        C221   1.400       .  A
C221        C222   1.401       .  A
C221        H224   1.085       .  S
C222        C225   1.445       .  S
C225        N227   1.157       .  T
C226        N228   1.157       .  T
C229        C230   1.406       .  A
C229        C234   1.412       .  A
C230        C231   1.404       .  A
C230        H235   1.085       .  S
C231        C232   1.416       .  A
C231        C238   1.444       .  S
C232        C233   1.407       .  A
C233        C234   1.400       .  A
C233        H236   1.085       .  S
C234        C237   1.444       .  S
C237        N239   1.157       .  T
C238        N240   1.157       .  T
C241        C242   1.410       .  A
C241        C246   1.413       .  A
C242        C243   1.400       .  A
C242        H247   1.085       .  S
C243        C244   1.406       .  A
C243        C250   1.444       .  S
C244        C245   1.405       .  A
C245        C246   1.400       .  A
C245        H248   1.085       .  S
C246        C249   1.444       .  S
C249        N251   1.157       .  T
C250        N252   1.157       .  T
C253        C254   1.411       .  A
C253        C258   1.413       .  A
C254        C255   1.405       .  A
C254        H259   1.084       .  S
C255        C256   1.413       .  A
C255        C262   1.444       .  S
C256        C257   1.410       .  A
C257        C258   1.403       .  A
C257        H260   1.084       .  S
C258        C261   1.444       .  S
C261        N263   1.157       .  T
C262        N264   1.157       .  T
C265        C266   1.406       .  A
C265        C270   1.415       .  A
C266        C267   1.414       .  A
C266        H271   1.084       .  S
C267        C268   1.419       .  A
C267        C274   1.442       .  S
C268        C269   1.403       .  A
C269        C270   1.395       .  A
C269        H272   1.085       .  S
C270        C273   1.446       .  S
C273        N275   1.157       .  T
C274        N276   1.157       .  T
C277        C278   1.408       .  A
C277        C282   1.412       .  A
C278        C279   1.411       .  A
C278        H283   1.084       .  S
C279        C280   1.411       .  A
C279        C286   1.442       .  S
C280        C281   1.403       .  A
C281        C282   1.396       .  A
C281        H284   1.085       .  S
C282        C285   1.446       .  S
C285        N287   1.157       .  T
C286        N288   1.157       .  T
C289        C290   1.408       .  A
C289        C294   1.414   1_565  A
C290        C291   1.402   1_565  A
C290        H295   1.085       .  S
C291        C292   1.413       .  A
C291        C298   1.443       .  S
C292        C293   1.412       .  A
C293        C294   1.407       .  A
C293        H296   1.085       .  S
C294        C297   1.444       .  S
C297        N299   1.158       .  T
C298        N300   1.157       .  T
C301        C302   1.408       .  A
C301        C306   1.408       .  A
C302        C303   1.402       .  A
C302        H307   1.086       .  S
C303        C304   1.410       .  A
C303        C310   1.444       .  S
C304        C305   1.408       .  A
C305        C306   1.398       .  A
C305        H308   1.086       .  S
C306        C309   1.444       .  S
C309        N311   1.157       .  T
C310        N312   1.157       .  T
C313        C314   1.404       .  A
C313        C318   1.415       .  A
C314        C759   1.404   1_554  A
C314        H319   1.085       .  S
C315        C316   1.418       .  A
C315        C758   1.403       .  A
C315        C322   1.444       .  S
C316        C317   1.407       .  A
C317        C762   1.406       .  A
C317        H320   1.084       .  S
C318        C761   1.405   1_554  A
C318        C321   1.444       .  S
C321        N323   1.157       .  T
C322        N324   1.157       .  T
C325        C326   1.401   1_565  A
C325        C330   1.415       .  A
C326        C327   1.402       .  A
C326        H331   1.085   1_545  S
C327        C328   1.419       .  A
C327        C334   1.444       .  S
C328        C329   1.404       .  A
C329        C330   1.404   1_545  A
C329        H332   1.085       .  S
C330        C333   1.445       .  S
C333        N335   1.157       .  T
C334        N336   1.157       .  T
C337        C338   1.406       .  A
C337        C342   1.415       .  A
C338        C339   1.406       .  A
C338        H343   1.084       .  S
C339        C340   1.412       .  A
C339        C346   1.443       .  S
C340        C341   1.401       .  A
C341        C342   1.397       .  A
C341        H344   1.085       .  S
C342        C345   1.445       .  S
C345        N347   1.157       .  T
C346        N348   1.157       .  T
C349        C350   1.407       .  A
C349        C354   1.417       .  A
C350        C795   1.408   1_554  A
C350        H355   1.085       .  S
C351        C352   1.418       .  A
C351        C794   1.407       .  A
C351        C358   1.444       .  S
C352        C353   1.406       .  A
C353        C798   1.406       .  A
C353        H356   1.084       .  S
C354        C797   1.406   1_554  A
C354        C357   1.444       .  S
C357        N359   1.157       .  T
C358        N360   1.157       .  T
C361        C362   1.404       .  A
C361        C366   1.414       .  A
C362        C363   1.404       .  A
C362        H367   1.085       .  S
C363        C364   1.419       .  A
C363        C370   1.445       .  S
C364        C365   1.406       .  A
C365        C366   1.404       .  A
C365        H368   1.084       .  S
C366        C369   1.443       .  S
C369        N371   1.157       .  T
C370        N372   1.158       .  T
C373        C374   1.410       .  A
C373        C378   1.411       .  A
C374        C375   1.403       .  A
C374        H379   1.085       .  S
C375        C376   1.409       .  A
C375        C382   1.444       .  S
C376        C377   1.408       .  A
C377        C378   1.400       .  A
C377        H380   1.085       .  S
C378        C381   1.444       .  S
C381        N383   1.157       .  T
C382        N384   1.157       .  T
C385        C386   1.406       .  A
C385        C390   1.410       .  A
C386        C387   1.405       .  A
C386        H391   1.085       .  S
C387        C388   1.410       .  A
C387        C394   1.444       .  S
C388        C389   1.406       .  A
C389        C390   1.405       .  A
C389        H392   1.085       .  S
C390        C393   1.444       .  S
C393        N395   1.157       .  T
C394        N396   1.157       .  T
C397        C398   1.405       .  A
C397        C402   1.418       .  A
C398        C399   1.404       .  A
C398        H403   1.084       .  S
C399        C400   1.414       .  A
C399        C406   1.444       .  S
C400        C401   1.405       .  A
C401        C402   1.406       .  A
C401        H404   1.084       .  S
C402        C405   1.445       .  S
C405        N407   1.157       .  T
C406        N408   1.157       .  T
C409        C410   1.409       .  A
C409        C414   1.409       .  A
C410        C411   1.401       .  A
C410        H415   1.085       .  S
C411        C412   1.410       .  A
C411        C418   1.444       .  S
C412        C413   1.408       .  A
C413        C414   1.400       .  A
C413        H416   1.084       .  S
C414        C417   1.443       .  S
C417        N419   1.157       .  T
C418        N420   1.157       .  T
C421        C422   1.404       .  A
C421        C426   1.420       .  A
C422        C423   1.403   1_455  A
C422        H427   1.084       .  S
C423        C424   1.418       .  A
C423        C430   1.445       .  S
C424        C425   1.402       .  A
C425        C426   1.404   1_655  A
C425        H428   1.085       .  S
C426        C429   1.445       .  S
C429        N431   1.157       .  T
C430        N432   1.157       .  T
C433        C434   1.404       .  A
C433        C438   1.411       .  A
C434        C435   1.410       .  A
C434        H439   1.084       .  S
C435        C436   1.415       .  A
C435        C442   1.443       .  S
C436        C437   1.400       .  A
C437        C438   1.396       .  A
C437        H440   1.085       .  S
C438        C441   1.442       .  S
C441        N443   1.156       .  T
C442        N444   1.157       .  T
O445        C448   1.274       .  A
O445       Cd450   2.484       .  S
C446        O455   1.264       .  A
C446        O451   1.275       .  A
C446        C853   1.483       .  S
O447        C453   1.274       .  A
O447       Cd450   2.477       .  S
C448        O456   1.268       .  A
C448        C841   1.492       .  S
C449        O454   1.273       .  A
C449        O452   1.267       .  A
C449        C880   1.477       .  S
Cd450       O457   2.426       .  S
Cd450       O456   2.441       .  S
Cd450       O455   2.399       .  S
Cd450       O451   2.501       .  S
Cd450       O454   2.489       .  S
Cd450       O452   2.394       .  S
C453        O457   1.265       .  A
C453        C865   1.491       .  S
O458        C461   1.273       .  A
O458       Cd463   2.477       .  S
C459        O468   1.266       .  A
C459        O464   1.275       .  A
C459        C820   1.483       .  S
O460        C466   1.276       .  A
O460       Cd463   2.502       .  S
C461        O469   1.270       .  A
C461        C805   1.491       .  S
C462        O467   1.275       .  A
C462        O465   1.267       .  A
C462        C829   1.485       .  S
Cd463       O470   2.403       .  S
Cd463       O469   2.450       .  S
Cd463       O468   2.382       .  S
Cd463       O464   2.485       .  S
Cd463       O467   2.507       .  S
Cd463       O465   2.393       .  S
C466        O470   1.265       .  A
C466        C868   1.490       .  S
O471        C474   1.273       .  A
O471       Cd476   2.505       .  S
C472        O481   1.264       .  A
C472        O477   1.275       .  A
C472        C781   1.486       .  S
O473        C479   1.275       .  A
O473       Cd476   2.485       .  S
C474        O482   1.268       .  A
C474        C793   1.499       .  S
C475        O480   1.273       .  A
C475        O478   1.266       .  A
C475        C877   1.476       .  S
Cd476       O483   2.406       .  S
Cd476       O482   2.451       .  S
Cd476       O481   2.397       .  S
Cd476       O477   2.511       .  S
Cd476       O480   2.511       .  S
Cd476       O478   2.404       .  S
C479        O483   1.266       .  A
C479        C769   1.483       .  S
O484        C487   1.273       .  A
O484       Cd489   2.473       .  S
C485        O494   1.268       .  A
C485        O490   1.277       .  A
C485        C748   1.483       .  S
O486        C492   1.276       .  A
O486       Cd489   2.498       .  S
C487        O495   1.269       .  A
C487        C757   1.493       .  S
C488        O493   1.277       .  A
C488        O491   1.267       .  A
C488        C832   1.479       .  S
Cd489       O496   2.409       .  S
Cd489       O495   2.456       .  S
Cd489       O494   2.385       .  S
Cd489       O490   2.469       .  S
Cd489       O493   2.506       .  S
Cd489       O491   2.390       .  S
C492        O496   1.266       .  A
C492        C772   1.489       .  S
O497        C500   1.273       .  A
O497       Cd502   2.499       .  S
C498        O507   1.265       .  A
C498        O503   1.275       .  A
C498        C784   1.481       .  S
O499        C505   1.276       .  A
O499       Cd502   2.502       .  S
C500        O508   1.269       .  A
C500        C796   1.502       .  S
C501        O506   1.275       .  A
C501        O504   1.265       .  A
C501        C724   1.484       .  S
Cd502       O509   2.414       .  S
Cd502       O508   2.471       .  S
Cd502       O507   2.398       .  S
Cd502       O503   2.502       .  S
Cd502       O506   2.531       .  S
Cd502       O504   2.394       .  S
C505        O509   1.267       .  A
C505        C733   1.494       .  S
O510        C513   1.274       .  A
O510       Cd515   2.486       .  S
C511        O520   1.266       .  A
C511        O516   1.276       .  A
C511        C745   1.477       .  S
O512        C518   1.276       .  A
O512       Cd515   2.491       .  S
C513        O521   1.269       .  A
C513        C760   1.495       .  S
C514        O519   1.276       .  A
C514        O517   1.269       .  A
C514        C712   1.495       .  S
Cd515       O522   2.432       .  S
Cd515       O521   2.441       .  S
Cd515       O520   2.387       .  S
Cd515       O516   2.471       .  S
Cd515       O519   2.518       .  S
Cd515       O517   2.400       .  S
C518        O522   1.267       .  A
C518        C736   1.497       .  S
O523        C526   1.274       .  A
O523       Cd528   2.464       .  S
C524        O533   1.267       .  A
C524        O529   1.275       .  A
C524        C685   1.486       .  S
O525        C531   1.275       .  A
O525       Cd528   2.483       .  S
C526        O534   1.269       .  A
C526        C673   1.485       .  S
C527        O532   1.276       .  A
C527        O530   1.267       .  A
C527        C721   1.485       .  S
Cd528       O535   2.434       .  S
Cd528       O534   2.419       .  S
Cd528       O533   2.391       .  S
Cd528       O529   2.477       .  S
Cd528       O532   2.509       .  S
Cd528       O530   2.388       .  S
C531        O535   1.267       .  A
C531        C697   1.496       .  S
O536        C539   1.274       .  A
O536       Cd541   2.463       .  S
C537        O546   1.267       .  A
C537        O542   1.278       .  A
C537        C661   1.485       .  S
O538        C544   1.278       .  A
O538       Cd541   2.503       .  S
C539        O547   1.271       .  A
C539        C652   1.490       .  S
C540        O545   1.278       .  A
C540        O543   1.268       .  A
C540        C709   1.492       .  S
Cd541       O548   2.412       .  S
Cd541       O547   2.445       .  S
Cd541       O546   2.381       .  S
Cd541       O542   2.476       .  S
Cd541       O545   2.520       .  S
Cd541       O543   2.388       .  S
C544        O548   1.268       .  A
C544        C700   1.496       .  S
O549        C552   1.272       .  A
O549       Cd554   2.494       .  S
C550        O559   1.264       .  A
C550        O555   1.275       .  A
C550        C856   1.485       .  S
O551        C557   1.274       .  A
O551       Cd554   2.500       .  S
C552        O560   1.268       .  A
C552        C844   1.490       .  S
C553        O558   1.274       .  A
C553        O556   1.267       .  A
C553        C637   1.480       .  S
Cd554       O561   2.439       .  S
Cd554       O560   2.440       .  S
Cd554       O558   2.509       .  S
Cd554       O556   2.424       .  S
C557        O561   1.266       .  A
C557        C625   1.496       .  S
O562        C565   1.274       .  A
O562       Cd567   2.484       .  S
C563        O572   1.265       .  A
C563        O568   1.275       .  A
C563        C817   1.485       .  S
O564        C570   1.275       .  A
O564       Cd567   2.503       .  S
C565        O573   1.268       .  A
C565        C808   1.494       .  S
C566        O571   1.274       .  A
C566        O569   1.267       .  A
C566        C613   1.484       .  S
Cd567       O574   2.410       .  S
Cd567       O573   2.440       .  S
Cd567       O571   2.489       .  S
Cd567       O569   2.402       .  S
C570        O574   1.266       .  A
C570        C628   1.491       .  S
O575        C578   1.273       .  A
O575       Cd580   2.465       .  S
C576        O585   1.265       .  A
C576        C688   1.472       .  S
O577        C583   1.277       .  A
O577       Cd580   2.514       .  S
C578        O586   1.270       .  A
C578        C676   1.490       .  S
C579        O584   1.274       .  A
C579        O582   1.268       .  A
C579        C640   1.485       .  S
Cd580       O587   2.423       .  S
Cd580       O586   2.430       .  S
Cd580       O581   2.482       .  S
Cd580       O584   2.503       .  S
Cd580       O582   2.442       .  S
C583        O587   1.265       .  A
C583        C601   1.498       .  S
O588        C591   1.275       .  A
O588       Cd593   2.462       .  S
C589        O598   1.268       .  A
C589        C664   1.483       .  S
O590        C596   1.278       .  A
O590       Cd593   2.496       .  S
C591        O599   1.269       .  A
C591        C649   1.492       .  S
C592        O597   1.278       .  A
C592        O595   1.268       .  A
C592        C616   1.480       .  S
Cd593       O600   2.412       .  S
Cd593       O599   2.419       .  S
Cd593       O594   2.474       .  S
Cd593       O597   2.507       .  S
Cd593       O595   2.374       .  S
C596        O600   1.267       .  A
C596        C604   1.494       .  S
C601        C602   1.404       .  A
C601        C606   1.422       .  A
C602        C603   1.405       .  A
C602        H607   1.085       .  S
C603        C604   1.419       .  A
C604        C605   1.402       .  A
C605        C606   1.404       .  A
C605        H608   1.085       .  S
C606        C609   1.444       .  S
C609        N611   1.157       .  T
C610        N612   1.157       .  T
C613        C618   1.413       .  A
C614        C615   1.408       .  A
C614        H619   1.085       .  S
C615        C616   1.411       .  A
C615        C622   1.442       .  S
C617        C618   1.396       .  A
C617        H620   1.086       .  S
C618        C621   1.445       .  S
C621        N623   1.157       .  T
C622        N624   1.157       .  T
C625        C626   1.412       .  A
C625        C630   1.413       .  A
C626        C627   1.405   1_455  A
C626        H631   1.084       .  S
C627        C628   1.412       .  A
C627        C634   1.444       .  S
C628        C629   1.408       .  A
C629        C630   1.401   1_655  A
C633        N635   1.157       .  T
C634        N636   1.157       .  T
C637        C642   1.409       .  A
C638        C639   1.405       .  A
C639        C640   1.411       .  A
C639        C646   1.443       .  S
C640        C641   1.407       .  A
C641        H644   1.085       .  S
C642        C645   1.443       .  S
C645        N647   1.157       .  T
C646        N648   1.157       .  T
C649        C650   1.405       .  A
C649        C654   1.418       .  A
C650        C651   1.403       .  A
C650        H655   1.084       .  S
C651        C652   1.416       .  A
C651        C658   1.444       .  S
C652        C653   1.405       .  A
C653        C654   1.402       .  A
C653        H656   1.085       .  S
C654        C657   1.445       .  S
C657        N659   1.158       .  T
C658        N660   1.157       .  T
C661        C662   1.402       .  A
C661        C666   1.419       .  A
C662        C663   1.402       .  A
C662        H667   1.085       .  S
C663        C664   1.417       .  A
C663        C670   1.445       .  S
C664        C665   1.400       .  A
C665        C666   1.400       .  A
C665        H668   1.085       .  S
C666        C669   1.445       .  S
C669        N671   1.157       .  T
C670        N672   1.157       .  T
C673        C674   1.405       .  A
C673        C678   1.412       .  A
C674        C675   1.402       .  A
C674        H679   1.085       .  S
C675        C676   1.416       .  A
C675        C682   1.444       .  S
C676        C677   1.407       .  A
C677        C678   1.402       .  A
C677        H680   1.085       .  S
C678        C681   1.444       .  S
C681        N683   1.157       .  T
C682        N684   1.157       .  T
C685        C686   1.410       .  A
C685        C690   1.413       .  A
C686        C687   1.398       .  A
C686        H691   1.085       .  S
C687        C688   1.405       .  A
C687        C694   1.444       .  S
C688        C689   1.405       .  A
C689        C690   1.401       .  A
C689        H692   1.086       .  S
C690        C693   1.444       .  S
C693        N695   1.157       .  T
C694        N696   1.157       .  T
C697        C698   1.411       .  A
C697        C702   1.413       .  A
C698        C699   1.406       .  A
C698        H703   1.084       .  S
C699        C700   1.413       .  A
C699        C706   1.443       .  S
C700        C701   1.410       .  A
C701        C702   1.403       .  A
C701        H704   1.084       .  S
C702        C705   1.444       .  S
C705        N707   1.157       .  T
C706        N708   1.157       .  T
C709        C710   1.407       .  A
C709        C714   1.416       .  A
C710        C711   1.414       .  A
C710        H715   1.084       .  S
C711        C712   1.419       .  A
C711        C718   1.442       .  S
C712        C713   1.403       .  A
C713        C714   1.396       .  A
C713        H716   1.085       .  S
C714        C717   1.446       .  S
C717        N719   1.157       .  T
C718        N720   1.157       .  T
C721        C722   1.409       .  A
C721        C726   1.412       .  A
C722        C723   1.411       .  A
C722        H727   1.084       .  S
C723        C724   1.411       .  A
C723        C730   1.442       .  S
C724        C725   1.404       .  A
C725        C726   1.397       .  A
C725        H728   1.085       .  S
C726        C729   1.446       .  S
C729        N731   1.157       .  T
C730        N732   1.157       .  T
C733        C734   1.408       .  A
C733        C738   1.413   1_565  A
C734        C735   1.403   1_565  A
C734        H739   1.085       .  S
C735        C736   1.413       .  A
C735        C742   1.443       .  S
C736        C737   1.412       .  A
C737        C738   1.406       .  A
C737        H740   1.085       .  S
C738        C741   1.444       .  S
C741        N743   1.158   1_545  T
C742        N744   1.157       .  T
C745        C746   1.407       .  A
C745        C750   1.408       .  A
C746        C747   1.401       .  A
C746        H751   1.086       .  S
C747        C748   1.411       .  A
C747        C754   1.444       .  S
C748        C749   1.409       .  A
C749        C750   1.399       .  A
C749        H752   1.086       .  S
C750        C753   1.444       .  S
C753        N755   1.157       .  T
C754        N756   1.157       .  T
C757        C758   1.404       .  A
C757        C762   1.416       .  A
C758        H763   1.085       .  S
C759        C760   1.418       .  A
C759        C766   1.444       .  S
C760        C761   1.407       .  A
C761        H764   1.084       .  S
C762        C765   1.444       .  S
C765        N767   1.157       .  T
C766        N768   1.157       .  T
C769        C770   1.401   1_565  A
C769        C774   1.415       .  A
C770        C771   1.402       .  A
C770        H775   1.085   1_545  S
C771        C772   1.419       .  A
C771        C778   1.445       .  S
C772        C773   1.403       .  A
C773        C774   1.403   1_545  A
C773        H776   1.085       .  S
C774        C777   1.445       .  S
C777        N779   1.157       .  T
C778        N780   1.157       .  T
C781        C782   1.407       .  A
C781        C786   1.416       .  A
C782        C783   1.407       .  A
C782        H787   1.084       .  S
C783        C784   1.413       .  A
C783        C790   1.443       .  S
C784        C785   1.402       .  A
C785        C786   1.397       .  A
C785        H788   1.085       .  S
C786        C789   1.446       .  S
C789        N791   1.157       .  T
C790        N792   1.157       .  T
C793        C794   1.407       .  A
C793        C798   1.418       .  A
C794        H799   1.085       .  S
C795        C796   1.419       .  A
C795        C802   1.444       .  S
C796        C797   1.407       .  A
C797        H800   1.084       .  S
C798        C801   1.444       .  S
C801        N803   1.157       .  T
C802        N804   1.157       .  T
C805        C806   1.404       .  A
C805        C810   1.415       .  A
C806        C807   1.404       .  A
C806        H811   1.085       .  S
C807        C808   1.418       .  A
C807        C814   1.445       .  S
C808        C809   1.406       .  A
C809        C810   1.404       .  A
C809        H812   1.084       .  S
C810        C813   1.444       .  S
C813        N815   1.157       .  T
C814        N816   1.157       .  T
C817        C818   1.410       .  A
C817        C822   1.410       .  A
C818        C819   1.403       .  A
C818        H823   1.085       .  S
C819        C820   1.410       .  A
C819        C826   1.444       .  S
C820        C821   1.408       .  A
C821        C822   1.399       .  A
C821        H824   1.085       .  S
C822        C825   1.443       .  S
C825        N827   1.157       .  T
C826        N828   1.157       .  T
C829        C830   1.410       .  A
C829        C834   1.411       .  A
C830        C831   1.411       .  A
C830        H835   1.084       .  S
C831        C832   1.408       .  A
C831        C838   1.442       .  S
C832        C833   1.403       .  A
C833        C834   1.397       .  A
C833        H836   1.085       .  S
C834        C837   1.445       .  S
C837        N839   1.157       .  T
C838        N840   1.157       .  T
C841        C842   1.405       .  A
C841        C846   1.418       .  A
C842        C843   1.403       .  A
C842        H847   1.084       .  S
C843        C844   1.414       .  A
C843        C850   1.444       .  S
C844        C845   1.405       .  A
C845        C846   1.406       .  A
C845        H848   1.085       .  S
C846        C849   1.445       .  S
C849        N851   1.158       .  T
C850        N852   1.157       .  T
C853        C854   1.408       .  A
C853        C858   1.409       .  A
C854        C855   1.402       .  A
C854        H859   1.085       .  S
C855        C856   1.410       .  A
C855        C862   1.444       .  S
C856        C857   1.410       .  A
C857        C858   1.401       .  A
C857        H860   1.085       .  S
C858        C861   1.444       .  S
C861        N863   1.157       .  T
C862        N864   1.157       .  T
C865        C866   1.402       .  A
C865        C870   1.420       .  A
C866        C867   1.400   1_455  A
C866        H871   1.085       .  S
C867        C868   1.418       .  A
C867        C874   1.445       .  S
C868        C869   1.403       .  A
C869        C870   1.405   1_655  A
C869        H872   1.085       .  S
C870        C873   1.445       .  S
C873        N875   1.158       .  T
C874        N876   1.157       .  T
C877        C878   1.403       .  A
C877        C882   1.411       .  A
C878        C879   1.409       .  A
C878        H883   1.084       .  S
C879        C880   1.415       .  A
C879        C886   1.443       .  S
C880        C881   1.399       .  A
C881        C882   1.396       .  A
C881        H884   1.085       .  S
C882        C885   1.442       .  S
C885        N887   1.156       .  T
C886        N888   1.157       .  T
