geometry optimzed in LAMMPS
_audit_creation_date              2020-12-01 
_audit_creation_method            'lammps2cif' 
_symmetry_space_group_name_H-M    'P1' 
_symmetry_Int_Tables_number       1 
_symmetry_cell_setting            triclinic 
loop_ 
_symmetry_equiv_pos_as_xyz 
  x,y,z 
_cell_length_a                    43.11175776 
_cell_length_b                    43.079295747576815 
_cell_length_c                    71.3453794228444 
_cell_angle_alpha                 90.07474422814934 
_cell_angle_beta                  90.02295183943163 
_cell_angle_gamma                 90.12324813785403 
loop_ 
_atom_site_label 
_atom_site_type_symbol 
_atom_site_fract_x 
_atom_site_fract_y 
_atom_site_fract_z 
_atom_site_charge 
O1          O  0.17192540  0.84319430  0.52291577    -0.71500
O2          O  0.09290581  0.84095175  0.54639411    -0.71700
O3          O  0.12056564  0.87823056  0.52140034    -0.71600
O4          O  0.14389739  0.80591451  0.54798202    -0.71600
O5          O  0.16012009  0.83449401  0.57105850    -0.71500
O6          O  0.13948632  0.90701704  0.54365021    -0.71600
O7          O  0.11034003  0.87121506  0.56845713    -0.71500
O8          O  0.18992652  0.87056673  0.54596129    -0.71700
V9          V  0.13277524  0.84263790  0.53506392     1.35200
V10         V  0.14979171  0.87023493  0.55681532     1.35200
C11         C  0.19456055  0.85720305  0.53044813     0.77700
C12         C  0.08822362  0.85599909  0.56133568     0.77800
C13         C  0.12531889  0.90490955  0.52818958     0.77700
C14         C  0.15489360  0.80778756  0.56435055     0.77600
O15         O  0.88149006  0.84427221  0.69172970    -0.71500
O16         O  0.88530766  0.77072374  0.66226491    -0.71700
O17         O  0.91283210  0.82603747  0.66080335    -0.71600
O18         O  0.85430677  0.78791227  0.69295784    -0.71600
O19         O  0.81656809  0.80756650  0.67664456    -0.71500
O20         O  0.87553478  0.84075826  0.64239070    -0.71600
O21         O  0.84564521  0.78683733  0.64615745    -0.71500
O22         O  0.84610478  0.86242408  0.67302132    -0.71700
V23         V  0.88277457  0.80773669  0.67668574     1.35200
V24         V  0.84669511  0.82423701  0.65993593     1.35200
C25         C  0.86317844  0.86595225  0.68723490     0.77700
C26         C  0.86557323  0.76616098  0.64944574     0.77800
C27         C  0.90427730  0.83768381  0.64541364     0.77700
C28         C  0.82554133  0.79076759  0.69012375     0.77600
O29         O  0.12775916  0.54342084  0.68845635    -0.71500
O30         O  0.13091531  0.61265888  0.65555287    -0.71700
O31         O  0.10491270  0.55624281  0.65449385    -0.71600
O32         O  0.15369418  0.60062798  0.68941285    -0.71600
O33         O  0.19556519  0.58030520  0.67779359    -0.71500
O34         O  0.14657540  0.54002881  0.64045792    -0.71600
O35         O  0.17431790  0.59558159  0.64406240    -0.71500
O36         O  0.16791031  0.52374726  0.67465572    -0.71700
V37         V  0.13015654  0.57775228  0.67180583     1.35200
V38         V  0.17031501  0.56005639  0.65955352     1.35200
C39         C  0.14659500  0.52113360  0.68676819     0.77700
C40         C  0.15371206  0.61635602  0.64462787     0.77800
C41         C  0.11728670  0.54163594  0.64111162     0.77700
C42         C  0.18293520  0.59917077  0.68904595     0.77600
O43         O  0.86422391  0.56804515  0.51288946    -0.71500
O44         O  0.93878793  0.56236541  0.54098550    -0.71700
O45         O  0.91581559  0.53284175  0.51112987    -0.71600
O46         O  0.88767093  0.59734029  0.54295764    -0.71600
O47         O  0.86764735  0.56300555  0.56170743    -0.71500
O48         O  0.89284461  0.49890614  0.52888359    -0.71600
O49         O  0.91781850  0.52678895  0.55851555    -0.71500
O50         O  0.84226149  0.53507839  0.53170758    -0.71700
V51         V  0.90108631  0.56450341  0.52728517     1.35200
V52         V  0.88041225  0.53165384  0.54481117     1.35200
C53         C  0.84050050  0.55259710  0.51754190     0.77700
C54         C  0.94107552  0.54326574  0.55433677     0.77800
C55         C  0.90999071  0.50480788  0.51499348     0.77700
C56         C  0.87367066  0.59104401  0.55803670     0.77600
O57         O  0.62804811  0.60890119  0.77356333    -0.71500
O58         O  0.62145207  0.68604228  0.79894888    -0.71700
O59         O  0.65237378  0.66561013  0.76859716    -0.71600
O60         O  0.59716486  0.63008680  0.80391075    -0.71600
O61         O  0.63602249  0.61801298  0.82182250    -0.71500
O62         O  0.69149806  0.65279315  0.78605988    -0.71600
O63         O  0.66098033  0.67383888  0.81632643    -0.71500
O64         O  0.66657136  0.59607321  0.79149844    -0.71700
V65         V  0.62558561  0.64731474  0.78653447     1.35200
V66         V  0.66308398  0.63530308  0.80351670     1.35200
C67         C  0.64834921  0.58921296  0.77823557     0.77700
C68         C  0.63957060  0.69267113  0.81230701     0.77800
C69         C  0.68130859  0.66561406  0.77134298     0.77700
C70         C  0.60702513  0.61987070  0.81939421     0.77600
O71         O  0.35643423  0.60420067  0.95532112    -0.71500
O72         O  0.42539660  0.61512183  0.92263993    -0.71700
O73         O  0.36540507  0.62982385  0.92137386    -0.71600
O74         O  0.41748313  0.58977705  0.95641872    -0.71600
O75         O  0.40515526  0.54498879  0.94450138    -0.71500
O76         O  0.35753303  0.58608080  0.90711827    -0.71600
O77         O  0.41690369  0.56930989  0.91084906    -0.71500
O78         O  0.34503191  0.56124408  0.94103592    -0.71700
V79         V  0.39084997  0.60883981  0.93878467     1.35200
V80         V  0.38117382  0.56621101  0.92619460     1.35200
C81         C  0.33856111  0.58100308  0.95352407     0.77700
C82         C  0.43291744  0.59385785  0.91129185     0.77800
C83         C  0.35416106  0.61527725  0.90759143     0.77700
C84         C  0.42094798  0.56068801  0.95608406     0.77600
O85         O  0.36078193  0.82488470  0.75207984    -0.71500
O86         O  0.35552604  0.75668505  0.78571771    -0.71700
O87         O  0.33399273  0.76804131  0.75119905    -0.71600
O88         O  0.38220939  0.81260432  0.78656534    -0.71600
O89         O  0.34034940  0.83228770  0.79848312    -0.71500
O90         O  0.29196392  0.78685792  0.76357970    -0.71600
O91         O  0.31388024  0.77634423  0.79788658    -0.71500
O92         O  0.31864253  0.84387196  0.76399716    -0.71700
V93         V  0.35728018  0.79100419  0.76901627     1.35200
V94         V  0.31697964  0.80958501  0.78061909     1.35200
C95         C  0.34100632  0.84649883  0.75262953     0.77700
C96         C  0.33419478  0.75524011  0.79785810     0.77800
C97         C  0.30474676  0.76862752  0.75205801     0.77700
C98         C  0.36949041  0.82921511  0.79893954     0.77600
O99         O  0.56789032  0.84558871  0.95920684    -0.71500
O100        O  0.50239427  0.84522616  0.92367619    -0.71700
O101        O  0.56075081  0.82574675  0.92366684    -0.71600
O102        O  0.50867729  0.86464161  0.95910749    -0.71600
O103        O  0.52278335  0.90987529  0.94885752    -0.71500
O104        O  0.57651600  0.87067597  0.91373314    -0.71600
O105        O  0.51789964  0.89002495  0.91330818    -0.71500
O106        O  0.58212319  0.89094047  0.94935712    -0.71700
V107        V  0.53529626  0.84621250  0.94129686     1.35200
V108        V  0.54961775  0.88956435  0.93159055     1.35200
C109        C  0.58630147  0.86838866  0.96037351     0.77700
C110        C  0.49946477  0.86732641  0.91216602     0.77800
C111        C  0.57626690  0.84143450  0.91203258     0.77700
C112        C  0.50615121  0.89380405  0.95979278     0.77600
O113        O  0.62296625  0.37290051  0.02080549    -0.71500
O114        O  0.54790482  0.37995285  0.04807076    -0.71700
O115        O  0.57321242  0.40990607  0.01905578    -0.71600
O116        O  0.59726165  0.34292768  0.04981837    -0.71600
O117        O  0.61903759  0.37476786  0.06935740    -0.71500
O118        O  0.59546360  0.44241931  0.03813398    -0.71600
O119        O  0.56985815  0.41270636  0.06710000    -0.71500
O120        O  0.64540449  0.40457575  0.04023669    -0.71700
V121        V  0.58586920  0.37708760  0.03478667     1.35200
V122        V  0.60716450  0.40802607  0.05329808     1.35200
C123        C  0.64712099  0.38721243  0.02598103     0.77700
C124        C  0.54613933  0.39737194  0.06228603     0.77800
C125        C  0.57943622  0.43756241  0.02355429     0.77700
C126        C  0.61146802  0.34724982  0.06509301     0.77600
O127        O  0.34846209  0.37535651  0.19512390    -0.71500
O128        O  0.34764321  0.30838422  0.16042519    -0.71700
O129        O  0.37757454  0.36291471  0.16274941    -0.71600
O130        O  0.31899683  0.32021453  0.19254176    -0.71600
O131        O  0.28138716  0.34133544  0.17681875    -0.71500
O132        O  0.34050796  0.38564772  0.14750486    -0.71600
O133        O  0.31100534  0.33097391  0.14475876    -0.71500
O134        O  0.31052262  0.39681596  0.18002659    -0.71700
V135        V  0.34747780  0.34230043  0.17744413     1.35200
V136        V  0.31158271  0.36346795  0.16264361     1.35200
C137        C  0.32957843  0.39760972  0.19351303     0.77700
C138        C  0.32868273  0.30793615  0.14687516     0.77800
C139        C  0.36924762  0.38105016  0.14983089     0.77700
C140        C  0.29041096  0.32188047  0.18890773     0.77600
O141        O  0.61997865  0.07719676  0.18826747    -0.71500
O142        O  0.61428209  0.15233435  0.16086574    -0.71700
O143        O  0.58381443  0.09822584  0.16038630    -0.71600
O144        O  0.65017636  0.13160693  0.18853680    -0.71600
O145        O  0.68312410  0.11305194  0.16842077    -0.71500
O146        O  0.61622785  0.08104966  0.13965693    -0.71600
O147        O  0.64752168  0.13486520  0.14070230    -0.71500
O148        O  0.65191488  0.05887157  0.16747227    -0.71700
V149        V  0.61769262  0.11438714  0.17413292     1.35200
V150        V  0.64908095  0.09720019  0.15447223     1.35200
C151        C  0.63705932  0.05532253  0.18259024     0.77700
C152        C  0.63006256  0.15663621  0.14618045     0.77800
C153        C  0.58849078  0.08475797  0.14489849     0.77700
C154        C  0.67783828  0.12880172  0.18302063     0.77600
O155        O  0.31490995  0.07981630  0.02754198    -0.71500
O156        O  0.39314804  0.07488516  0.05196715    -0.71700
O157        O  0.36255162  0.04008955  0.02688906    -0.71600
O158        O  0.34592359  0.11477780  0.05245640    -0.71600
O159        O  0.32398258  0.08916091  0.07505780    -0.71500
O160        O  0.34277098  0.01340851  0.04982618    -0.71600
O161        O  0.37173948  0.04939814  0.07479455    -0.71500
O162        O  0.29404451  0.05311491  0.05010915    -0.71700
V163        V  0.35363024  0.07683903  0.04013083     1.35200
V164        V  0.33339372  0.05174073  0.06197133     1.35200
C165        C  0.29111253  0.06760958  0.03483202     0.77700
C166        C  0.39569763  0.06134341  0.06762498     0.77800
C167        C  0.35653443  0.01411417  0.03416896     0.77700
C168        C  0.33294105  0.11480696  0.06827858     0.77600
O169        O  0.86934522  0.31122019  0.26885374    -0.71500
O170        O  0.87632638  0.23525404  0.29559985    -0.71700
O171        O  0.84884316  0.25285214  0.26372587    -0.71600
O172        O  0.89715122  0.29286736  0.30081827    -0.71600
O173        O  0.85563777  0.30226157  0.31710383    -0.71500
O174        O  0.80684690  0.26589380  0.27856162    -0.71600
O175        O  0.83339355  0.24551647  0.31023877    -0.71500
O176        O  0.82887108  0.32313737  0.28536823    -0.71700
V177        V  0.87209498  0.27336975  0.28250024     1.35200
V178        V  0.83194960  0.28407766  0.29746795     1.35200
C179        C  0.84803397  0.33038153  0.27270679     0.77700
C180        C  0.85603516  0.22749392  0.30752456     0.77800
C181        C  0.81964075  0.25242487  0.26485777     0.77700
C182        C  0.88486231  0.30271257  0.31574015     0.77600
O183        O  0.12580448  0.32125190  0.45527660    -0.71500
O184        O  0.05994851  0.31261898  0.42029686    -0.71700
O185        O  0.11951977  0.29575623  0.42111586    -0.71600
O186        O  0.06563933  0.33793066  0.45428857    -0.71600
O187        O  0.08134686  0.38206251  0.44296563    -0.71500
O188        O  0.12975293  0.33925764  0.40706278    -0.71600
O189        O  0.07085810  0.35823658  0.40902396    -0.71500
O190        O  0.14047038  0.36330409  0.44119492    -0.71700
V191        V  0.09306364  0.31771535  0.43757501     1.35200
V192        V  0.10547548  0.35989581  0.42535069     1.35200
C193        C  0.14489892  0.34344775  0.45394467     0.77700
C194        C  0.05401793  0.33423408  0.40888868     0.77800
C195        C  0.13234186  0.31008541  0.40775394     0.77700
C196        C  0.06416440  0.36719011  0.45412841     0.77600
O197        O  0.12176192  0.09643933  0.25910792    -0.71500
O198        O  0.13392653  0.15904272  0.29562221    -0.71700
O199        O  0.14715304  0.15368799  0.25914790    -0.71600
O200        O  0.10891972  0.10275395  0.29563167    -0.71600
O201        O  0.15395919  0.08464566  0.30371304    -0.71500
O202        O  0.19156490  0.13251295  0.26520606    -0.71600
O203        O  0.17983065  0.14083703  0.30167497    -0.71500
O204        O  0.16544166  0.07547222  0.26704985    -0.71700
V205        V  0.12884915  0.12755625  0.27739819     1.35200
V206        V  0.17188573  0.10862890  0.28415607     1.35200
C207        C  0.14087695  0.07447837  0.25734065     0.77700
C208        C  0.15874811  0.16037761  0.30499379     0.77800
C209        C  0.17606560  0.15251371  0.25628002     0.77700
C210        C  0.12503633  0.08620060  0.30649327     0.77600
O211        O  0.91353027  0.08722758  0.45839807    -0.71500
O212        O  0.98558030  0.08762796  0.42780859    -0.71700
O213        O  0.92644831  0.10412446  0.42302752    -0.71600
O214        O  0.97346759  0.07076119  0.46307243    -0.71600
O215        O  0.96199661  0.02415515  0.45359549    -0.71500
O216        O  0.91526114  0.05762876  0.41340702    -0.71600
O217        O  0.97453459  0.04092757  0.41836999    -0.71500
O218        O  0.90248474  0.04077431  0.44875013    -0.71700
V219        V  0.94943348  0.08652650  0.44296832     1.35200
V220        V  0.93873783  0.04176298  0.43377199     1.35200
C221        C  0.89544703  0.06403619  0.45863637     0.77700
C222        C  0.99230093  0.06427944  0.41787381     0.77800
C223        C  0.91380026  0.08663008  0.41099673     0.77700
C224        C  0.97637995  0.04174601  0.46482518     0.77600
O225        O  0.63557678  0.37110027  0.70183032    -0.71500
O226        O  0.63290940  0.30896284  0.66395062    -0.71700
O227        O  0.66160571  0.31447222  0.69681814    -0.71600
O228        O  0.60664861  0.36428973  0.66874214    -0.71600
O229        O  0.64551326  0.38416527  0.65351698    -0.71500
O230        O  0.70114232  0.33746684  0.68398809    -0.71600
O231        O  0.67386186  0.32929574  0.65105174    -0.71500
O232        O  0.67325111  0.39377693  0.68706336    -0.71700
V233        V  0.63497866  0.34028760  0.68268227     1.35200
V234        V  0.67268915  0.36103616  0.66928634     1.35200
C235        C  0.65429928  0.39366299  0.70058691     0.77700
C236        C  0.65360038  0.30815952  0.65139648     0.77800
C237        C  0.69053645  0.31593973  0.69423320     0.77700
C238        C  0.61648196  0.38108585  0.65554101     0.77600
O239        O  0.36323232  0.34997067  0.52674345    -0.71500
O240        O  0.43717788  0.35861121  0.55511625    -0.71700
O241        O  0.38293189  0.32956052  0.56009900    -0.71600
O242        O  0.41772400  0.37872366  0.52186711    -0.71600
O243        O  0.39845504  0.42023077  0.53464197    -0.71500
O244        O  0.36506312  0.37081770  0.57392399    -0.71600
O245        O  0.41884606  0.40052970  0.56788798    -0.71500
O246        O  0.34405463  0.39060290  0.54053658    -0.71700
V247        V  0.39977467  0.35501424  0.54120112     1.35200
V248        V  0.38183301  0.39476512  0.55395493     1.35200
C249        C  0.34103106  0.36873278  0.52885289     0.77700
C250        C  0.44088683  0.38149501  0.56601183     0.77800
C251        C  0.36906815  0.34176270  0.57380604     0.77700
C252        C  0.41485367  0.40784967  0.52198695     0.77600
O253        O  0.37624224  0.07057426  0.68970423    -0.71500
O254        O  0.38002645  0.15050346  0.66716594    -0.71700
O255        O  0.34758246  0.12517100  0.69496813    -0.71600
O256        O  0.40923364  0.09634181  0.66184982    -0.71600
O257        O  0.37409901  0.08491971  0.64119308    -0.71500
O258        O  0.31162630  0.10896381  0.67597473    -0.71600
O259        O  0.34233032  0.13723996  0.64851062    -0.71500
O260        O  0.34261135  0.05623322  0.66882333    -0.71700
V261        V  0.37763079  0.11026072  0.67804773     1.35200
V262        V  0.34339878  0.09696723  0.65898238     1.35200
C263        C  0.35859249  0.04971331  0.68310121     0.77700
C264        C  0.36084797  0.15768857  0.65449111     0.77800
C265        C  0.31917056  0.12256248  0.69102439     0.77700
C266        C  0.40247962  0.08672673  0.64562791     0.77600
O267        O  0.67284746  0.09138215  0.52523451    -0.71500
O268        O  0.59740609  0.09413416  0.55254460    -0.71700
O269        O  0.65056015  0.12600303  0.55349293    -0.71600
O270        O  0.61934357  0.05958926  0.52439648    -0.71600
O271        O  0.63962835  0.02645983  0.54376013    -0.71500
O272        O  0.66696686  0.09324655  0.57440269    -0.71600
O273        O  0.61523182  0.05923941  0.57172793    -0.71500
O274        O  0.69227787  0.06037164  0.54617496    -0.71700
V275        V  0.63550429  0.09212798  0.53926696     1.35200
V276        V  0.65335512  0.06045688  0.55858471     1.35200
C277        C  0.69558567  0.07590394  0.53128966     0.77700
C278        C  0.59344718  0.07684085  0.56663747     0.77800
C279        C  0.66285973  0.12100628  0.56925921     0.77700
C280        C  0.62357151  0.03178056  0.52928782     0.77600
O281        O  0.11507420  0.30375767  0.76204561    -0.71500
O282        O  0.11056516  0.23510801  0.79554913    -0.71700
O283        O  0.08428823  0.29125273  0.79395899    -0.71600
O284        O  0.14114158  0.24709223  0.76365211    -0.71600
O285        O  0.17935009  0.26540288  0.78019238    -0.71500
O286        O  0.12248858  0.31111064  0.80979247    -0.71600
O287        O  0.14818677  0.25477737  0.81182696    -0.71500
O288        O  0.15367536  0.32239201  0.77804900    -0.71700
V289        V  0.11351940  0.26972713  0.77905636     1.35200
V290        V  0.15022666  0.28810613  0.79457963     1.35200
C291        C  0.13505891  0.32495582  0.76444247     0.77700
C292        C  0.12846529  0.23338785  0.80959876     0.77800
C293        C  0.09360525  0.30843977  0.80717248     0.77700
C294        C  0.16980889  0.24782519  0.76722152     0.77600
O295        O  0.85757495  0.33492672  0.94935093    -0.71500
O296        O  0.92696948  0.32807706  0.91687769    -0.71700
O297        O  0.91609163  0.35683824  0.94956921    -0.71600
O298        O  0.86914610  0.30619704  0.91668536    -0.71600
O299        O  0.85321735  0.34703720  0.90186008    -0.71500
O300        O  0.90180316  0.39774961  0.93415630    -0.71600
O301        O  0.91127850  0.36862327  0.90157124    -0.71500
O302        O  0.84315773  0.37655848  0.93462659    -0.71700
V303        V  0.89209173  0.33233990  0.93289632     1.35200
V304        V  0.87754614  0.37172395  0.91840505     1.35200
C305        C  0.83852239  0.35696194  0.94748131     0.77700
C306        C  0.93053222  0.34680050  0.90341938     0.77800
C307        C  0.91766548  0.38584260  0.94721371     0.77700
C308        C  0.85407125  0.31778658  0.90321568     0.77600
O309        O  0.86485281  0.08751421  0.75944608    -0.71500
O310        O  0.85801683  0.15588748  0.79258504    -0.71700
O311        O  0.88187285  0.09911214  0.79496848    -0.71600
O312        O  0.84079152  0.14528955  0.75726145    -0.71600
O313        O  0.79649545  0.12794995  0.76723021    -0.71500
O314        O  0.83772749  0.08146996  0.80490237    -0.71600
O315        O  0.81379754  0.13841275  0.80256306    -0.71500
O316        O  0.82055582  0.06993335  0.76917517    -0.71700
V317        V  0.86048661  0.12147241  0.77615066     1.35200
V318        V  0.81795082  0.10461135  0.78564777     1.35200
C319        C  0.84431931  0.06657682  0.75895590     0.77700
C320        C  0.83513059  0.15853778  0.80350359     0.77800
C321        C  0.86681878  0.08357610  0.80690629     0.77700
C322        C  0.81153876  0.14593118  0.75654834     0.77600
O323        O  0.06851766  0.09385805  0.96504521    -0.71500
O324        O  0.99831559  0.08848973  0.93275862    -0.71700
O325        O  0.01085792  0.06977011  0.96772220    -0.71600
O326        O  0.05511654  0.11266994  0.93017691    -0.71600
O327        O  0.07277615  0.06936635  0.91916589    -0.71500
O328        O  0.02694955  0.02588573  0.95657608    -0.71600
O329        O  0.01581314  0.04513456  0.92160064    -0.71500
O330        O  0.08481766  0.04955866  0.95432179    -0.71700
V331        V  0.03360796  0.09031266  0.94879238     1.35200
V332        V  0.04988063  0.04828859  0.93821341     1.35200
C333        C  0.08881831  0.07269258  0.96493340     0.77700
C334        C  0.99547424  0.06618994  0.92131607     0.77800
C335        C  0.01004084  0.04051968  0.96810408     0.77700
C336        C  0.07071244  0.09863907  0.91787860     0.77600
O337        O  0.34988000  0.61271408  0.26738283    -0.71500
O338        O  0.36308918  0.68342371  0.29797950    -0.71700
O339        O  0.38472652  0.62563291  0.29746748    -0.71600
O340        O  0.32787339  0.67113823  0.26788308    -0.71600
O341        O  0.29009768  0.65588008  0.28585200    -0.71500
O342        O  0.34739214  0.61184928  0.31609416    -0.71600
O343        O  0.32480593  0.66953537  0.31591767    -0.71500
O344        O  0.31291090  0.59739433  0.28588302    -0.71700
V345        V  0.35555851  0.64789410  0.28296962     1.35200
V346        V  0.31942140  0.63385631  0.30050872     1.35200
C347        C  0.32952504  0.59274508  0.27153169     0.77700
C348        C  0.34674503  0.68815311  0.31238159     0.77800
C349        C  0.37597657  0.61185997  0.31215301     0.77700
C350        C  0.29949194  0.67204729  0.27221117     0.77600
O351        O  0.62022004  0.59111166  0.44881817    -0.71500
O352        O  0.54979841  0.59480985  0.41707300    -0.71700
O353        O  0.56268563  0.56696013  0.44968912    -0.71600
O354        O  0.60663804  0.61890783  0.41606495    -0.71600
O355        O  0.62395690  0.57833029  0.40144610    -0.71500
O356        O  0.57764532  0.52641684  0.43393461    -0.71600
O357        O  0.56666203  0.55490174  0.40150487    -0.71500
O358        O  0.63555516  0.54950893  0.43427175    -0.71700
V359        V  0.58524071  0.59213701  0.43269081     1.35200
V360        V  0.60080888  0.55307098  0.41815347     1.35200
C361        C  0.63959730  0.56934144  0.44710723     0.77700
C362        C  0.54662643  0.57593569  0.40363666     0.77800
C363        C  0.56183275  0.53796354  0.44709169     0.77700
C364        C  0.62164193  0.60752428  0.40248668     0.77600
O365        O  0.41694886  0.84414595  0.45903189    -0.71500
O366        O  0.48279715  0.84540802  0.42380360    -0.71700
O367        O  0.47585595  0.86529877  0.45902882    -0.71600
O368        O  0.42477197  0.82411945  0.42381624    -0.71600
O369        O  0.41122855  0.86847569  0.41196854    -0.71500
O370        O  0.45760542  0.90975229  0.44999333    -0.71600
O371        O  0.46857603  0.89146901  0.41483942    -0.71500
O372        O  0.39935909  0.88699394  0.44730476    -0.71700
V373        V  0.44974463  0.84563592  0.44131556     1.35200
V374        V  0.43437811  0.88838224  0.43131242     1.35200
C375        C  0.39612983  0.86474955  0.45868970     0.77700
C376        C  0.48687109  0.86878301  0.41340096     0.77800
C377        C  0.47614079  0.89451971  0.46019780     0.77700
C378        C  0.41062942  0.83912816  0.41127084     0.77600
O379        O  0.61793840  0.83623126  0.25585317    -0.71500
O380        O  0.61872529  0.76866565  0.28989927    -0.71700
O381        O  0.60366925  0.82815756  0.29207718    -0.71600
O382        O  0.63288142  0.77544745  0.25371570    -0.71600
O383        O  0.68041967  0.78800494  0.26057019    -0.71500
O384        O  0.65105907  0.83819339  0.30056272    -0.71600
O385        O  0.66677532  0.77874531  0.29672262    -0.71500
O386        O  0.66473917  0.84842951  0.26426807    -0.71700
V387        V  0.61927981  0.80245453  0.27288781     1.35200
V388        V  0.66489661  0.81325574  0.28025282     1.35200
C389        C  0.64075487  0.85462079  0.25477874     0.77700
C390        C  0.64263533  0.76268714  0.29947743     0.77800
C391        C  0.62227462  0.84020240  0.30364862     0.77700
C392        C  0.66158455  0.77174067  0.25114127     0.77600
O393        O  0.09650979  0.85469734  0.19120469    -0.71500
O394        O  0.09761674  0.77406654  0.16967285    -0.71700
O395        O  0.12528066  0.80097818  0.19892580    -0.71600
O396        O  0.06857329  0.82740755  0.16186118    -0.71600
O397        O  0.10690822  0.83953839  0.14343034    -0.71500
O398        O  0.16381533  0.81591325  0.18153166    -0.71600
O399        O  0.13722700  0.78748132  0.15262826    -0.71500
O400        O  0.13378255  0.86874637  0.17262730    -0.71700
V401        V  0.09771573  0.81467354  0.18008520     1.35200
V402        V  0.13466216  0.82782420  0.16291192     1.35200
C403        C  0.11485110  0.87558425  0.18547701     0.77700
C404        C  0.11825091  0.76690361  0.15786323     0.77800
C405        C  0.15419743  0.80309132  0.19637440     0.77700
C406        C  0.07805616  0.83697442  0.14617038     0.77600
O407        O  0.80687478  0.84323647  0.02772361    -0.71500
O408        O  0.88419073  0.83989663  0.05297282    -0.71700
O409        O  0.83193758  0.80628236  0.05414103    -0.71600
O410        O  0.85960114  0.87650472  0.02681596    -0.71600
O411        O  0.84414514  0.90665458  0.04939248    -0.71500
O412        O  0.81155606  0.83649888  0.07500781    -0.71600
O413        O  0.86501748  0.86786807  0.07554211    -0.71500
O414        O  0.78973118  0.87552503  0.04857823    -0.71700
V415        V  0.84514841  0.84203154  0.04078771     1.35200
V416        V  0.82777430  0.87108083  0.06166357     1.35200
C417        C  0.78528301  0.86049327  0.03357420     0.77700
C418        C  0.88751681  0.85295651  0.06870760     0.77800
C419        C  0.81772036  0.80925964  0.06955493     0.77700
C420        C  0.85809694  0.90331975  0.03393869     0.77600
O421        O  0.11782744  0.57628412  0.02491699    -0.71500
O422        O  0.04417309  0.56928157  0.05392029    -0.71700
O423        O  0.09833015  0.59841660  0.05807134    -0.71600
O424        O  0.06258529  0.54732088  0.02093223    -0.71600
O425        O  0.08317392  0.50654896  0.03381147    -0.71500
O426        O  0.11518728  0.55775058  0.07285636    -0.71600
O427        O  0.06205635  0.52719949  0.06661718    -0.71500
O428        O  0.13736166  0.53709146  0.03989563    -0.71700
V429        V  0.08126391  0.57202846  0.03964608     1.35200
V430        V  0.09927018  0.53290190  0.05295396     1.35200
C431        C  0.14059203  0.55847516  0.02794944     0.77700
C432        C  0.04037988  0.54665863  0.06497955     0.77800
C433        C  0.11111755  0.58679978  0.07233073     0.77700
C434        C  0.06561691  0.51822968  0.02148906     0.77600
O435        O  0.84258539  0.55212830  0.19961181    -0.71500
O436        O  0.83406333  0.62186097  0.16731910    -0.71700
O437        O  0.80717141  0.60365172  0.19914118    -0.71600
O438        O  0.86952440  0.57085236  0.16770471    -0.71600
O439        O  0.83463521  0.54664014  0.15131323    -0.71500
O440        O  0.77202711  0.57866665  0.18333931    -0.71600
O441        O  0.79870769  0.59737571  0.15153833    -0.71500
O442        O  0.80791716  0.52737848  0.18340646    -0.71700
V443        V  0.83765419  0.58654157  0.18318338     1.35200
V444        V  0.80400174  0.56285551  0.16776624     1.35200
C445        C  0.82703600  0.52760387  0.19687772     0.77700
C446        C  0.81464958  0.62169979  0.15398753     0.77800
C447        C  0.77890494  0.59768257  0.19620811     0.77700
C448        C  0.86278610  0.55376040  0.15391509     0.77600
C449        C  0.97229229  0.51344963  0.09242697    -0.22200
C450        C  0.95901090  0.54073300  0.09935818     0.09800
C451        C  0.97151840  0.56982887  0.09433970     0.10200
C452        C  0.99754384  0.57097940  0.08262951    -0.17100
C453        C  0.01169703  0.54368867  0.07615507    -0.27500
C454        C  0.99858713  0.51449841  0.08085370     0.18500
C455        C  0.93346388  0.53856242  0.11301767     0.12500
C456        C  0.95786099  0.59960978  0.10174605    -0.11900
H457        H  0.00752447  0.59331009  0.07903393     0.12800
C458        C  0.01170414  0.48444391  0.07349867    -0.22700
H459        H  0.96235421  0.49127656  0.09639876     0.08400
C460        C  0.90218134  0.54060037  0.10748262     0.04700
C461        C  0.87919351  0.54347575  0.12127410    -0.19900
C462        C  0.88700121  0.54449547  0.14039954    -0.12200
C463        C  0.91822808  0.53977157  0.14587370     0.13500
C464        C  0.94108653  0.53692333  0.13204347    -0.22700
C465        C  0.89326785  0.54051496  0.08707009    -0.05700
H466        H  0.85525101  0.54660355  0.11704701     0.15000
C467        C  0.92768678  0.53732452  0.16616250    -0.15900
H468        H  0.96523167  0.53460797  0.13605857     0.09300
H469        H  0.01277106  0.48514355  0.05794915     0.07200
H470        H  0.99717716  0.46422430  0.07757446     0.08400
H471        H  0.03524913  0.48056622  0.07930218     0.07400
H472        H  0.95898395  0.59981896  0.11729213     0.02300
H473        H  0.93329358  0.60163493  0.09727695     0.02800
H474        H  0.97058553  0.62029185  0.09650168     0.06300
H475        H  0.86775638  0.54223204  0.08517313     0.05300
H476        H  0.90121807  0.51861080  0.08042816    -0.00500
H477        H  0.90423077  0.56046605  0.07979249     0.01000
H478        H  0.91378807  0.51891125  0.17308058     0.04600
H479        H  0.92428451  0.55978402  0.17346903     0.06600
H480        H  0.95255902  0.53110884  0.16764906     0.07400
C481        C  0.79507992  0.75641713  0.11056037    -0.22200
C482        C  0.80709877  0.72806010  0.10437216     0.09800
C483        C  0.81949529  0.72571053  0.08617547     0.10200
C484        C  0.82098734  0.75225663  0.07484309    -0.17100
C485        C  0.81067995  0.78140984  0.08129821    -0.27500
C486        C  0.79671560  0.78320096  0.09934253     0.18500
C487        C  0.80845289  0.70159952  0.11760450     0.12500
C488        C  0.83186942  0.69529489  0.07891426    -0.11900
H489        H  0.83137816  0.75029022  0.06107008     0.12800
C490        C  0.78406373  0.81307340  0.10724410    -0.22700
H491        H  0.78535829  0.75778071  0.12454864     0.08400
C492        C  0.83442861  0.69716192  0.12928895     0.04700
C493        C  0.83556768  0.67109833  0.14104232    -0.19900
C494        C  0.81127665  0.64922671  0.14148448    -0.12200
C495        C  0.78468934  0.65440290  0.13009723     0.13500
C496        C  0.78377511  0.68048800  0.11826359    -0.22700
C497        C  0.86102804  0.71993235  0.12926329    -0.05700
H498        H  0.85584669  0.66763254  0.14976391     0.15000
C499        C  0.75685617  0.63316140  0.13050420    -0.15900
H500        H  0.76378681  0.68439888  0.10935677     0.09300
H501        H  0.77303562  0.80956561  0.12115247     0.07200
H502        H  0.76613541  0.82259767  0.09768155     0.08400
H503        H  0.80312082  0.83014328  0.10918006     0.07400
H504        H  0.81307757  0.67763424  0.07891230     0.02300
H505        H  0.85111983  0.68714758  0.08798413     0.02800
H506        H  0.84084664  0.69743522  0.06438255     0.06300
H507        H  0.87953881  0.71307805  0.13925626     0.05300
H508        H  0.85254672  0.74329010  0.13336597    -0.00500
H509        H  0.87140464  0.72124003  0.11505043     0.01000
H510        H  0.73773698  0.64192915  0.12152490     0.04600
H511        H  0.74784903  0.63134406  0.14504621     0.06600
H512        H  0.76325759  0.60983563  0.12517160     0.07400
C513        C  0.02309884  0.82592684  0.10561016    -0.22200
C514        C  0.00409055  0.85198265  0.10776094     0.09800
C515        C  0.01167779  0.87489259  0.12114498     0.10200
C516        C  0.03737718  0.87034020  0.13287308    -0.17100
C517        C  0.05555091  0.84352952  0.13131755    -0.27500
C518        C  0.04881519  0.82134792  0.11725244     0.18500
C519        C  0.97448108  0.85281740  0.09742870     0.12500
C520        C  0.99224703  0.90369269  0.12327608    -0.11900
H521        H  0.04264395  0.88715177  0.14374881     0.12800
C522        C  0.06719157  0.79190193  0.11472313    -0.22700
H523        H  0.01701784  0.80837199  0.09532507     0.08400
C524        C  0.97287444  0.86161305  0.07844266     0.04700
C525        C  0.94411954  0.86075669  0.06925685    -0.19900
C526        C  0.91715287  0.85141078  0.07873844    -0.12200
C527        C  0.91894184  0.84206355  0.09769912     0.13500
C528        C  0.94764256  0.84312433  0.10682519    -0.22700
C529        C  0.00133824  0.87230108  0.06805154    -0.05700
H530        H  0.94253396  0.86799821  0.05473642     0.15000
C531        C  0.89150522  0.82976317  0.10855623    -0.15900
H532        H  0.94924301  0.83584292  0.12134246     0.09300
H533        H  0.07647067  0.79091062  0.10022159     0.07200
H534        H  0.05184407  0.77152014  0.11700650     0.08400
H535        H  0.08707013  0.79011755  0.12447375     0.07400
H536        H  0.96820119  0.89730108  0.12728912     0.02300
H537        H  0.99174763  0.91653731  0.10979604     0.02800
H538        H  0.00168304  0.91943489  0.13423315     0.06300
H539        H  0.99588449  0.87882099  0.05335784     0.05300
H540        H  0.01881069  0.85342208  0.06774108    -0.00500
H541        H  0.01142858  0.89289777  0.07518995     0.01000
H542        H  0.89699923  0.80627423  0.11401404     0.04600
H543        H  0.87016210  0.82747965  0.10002945     0.06600
H544        H  0.88659154  0.84537841  0.12058081     0.07400
C545        C  0.14879930  0.69228191  0.13700488    -0.22200
C546        C  0.12199934  0.68109219  0.12819088     0.09800
C547        C  0.09338512  0.69635386  0.13094134     0.10200
C548        C  0.09251085  0.72328605  0.14193310    -0.17100
C549        C  0.11968278  0.73563391  0.14973516    -0.27500
C550        C  0.14802025  0.71938766  0.14784730     0.18500
C551        C  0.12463342  0.65493402  0.11490735     0.12500
C552        C  0.06410957  0.68518907  0.12151183    -0.11900
H553        H  0.07084789  0.73573376  0.14355969     0.12800
C554        C  0.17770242  0.72968486  0.15720089    -0.22700
H555        H  0.17058308  0.68015904  0.13505607     0.08400
C556        C  0.13629996  0.65961059  0.09666980     0.04700
C557        C  0.13391597  0.63561164  0.08350904    -0.19900
C558        C  0.11956252  0.60732803  0.08803100    -0.12200
C559        C  0.10884114  0.60228799  0.10659184     0.13500
C560        C  0.11222106  0.62605638  0.11988494    -0.22700
C561        C  0.14964749  0.69046688  0.09078224    -0.05700
H562        H  0.14179112  0.63953205  0.06926959     0.15000
C563        C  0.09142402  0.57361684  0.11272029    -0.15900
H564        H  0.10320723  0.62278295  0.13393888     0.09300
H565        H  0.19516705  0.73571887  0.14636098     0.07200
H566        H  0.18689462  0.71044078  0.16591590     0.08400
H567        H  0.17458069  0.74988711  0.16662669     0.07400
H568        H  0.05828089  0.66144628  0.12640352     0.02300
H569        H  0.06740383  0.68488646  0.10607708     0.02800
H570        H  0.04407514  0.70047947  0.12470464     0.06300
H571        H  0.15686146  0.69036231  0.07583847     0.05300
H572        H  0.17036029  0.69600058  0.09940807    -0.00500
H573        H  0.13202669  0.70897858  0.09265761     0.01000
H574        H  0.10433527  0.56210509  0.12423690     0.04600
H575        H  0.08767996  0.55639539  0.10148374     0.06600
H576        H  0.06816185  0.58039890  0.11799814     0.07400
C577        C  0.71165672  0.72110869  0.22014603    -0.22200
C578        C  0.69929588  0.69186924  0.22454143     0.09800
C579        C  0.67266850  0.68955487  0.23584545     0.10200
C580        C  0.65928666  0.71670847  0.24289987    -0.17100
C581        C  0.67264726  0.74593135  0.23946657    -0.27500
C582        C  0.69866917  0.74831178  0.22752348     0.18500
C583        C  0.71624051  0.66401395  0.21841328     0.12500
C584        C  0.65937635  0.65843995  0.24123935    -0.11900
H585        H  0.63954587  0.71490796  0.25225657     0.12800
C586        C  0.71314940  0.77894175  0.22225376    -0.22700
H587        H  0.73207921  0.72262060  0.21131988     0.08400
C588        C  0.70986703  0.64943486  0.20116751     0.04700
C589        C  0.72898638  0.62511865  0.19517220    -0.19900
C590        C  0.75462127  0.61561284  0.20590681    -0.12200
C591        C  0.75928672  0.62863318  0.22392744     0.13500
C592        C  0.74019867  0.65299019  0.22983537    -0.22700
C593        C  0.68395366  0.66055648  0.18871387    -0.05700
H594        H  0.72530208  0.61520706  0.18137317     0.15000
C595        C  0.78403620  0.61756453  0.23725541    -0.15900
H596        H  0.74438285  0.66389378  0.24331787     0.09300
H597        H  0.71349753  0.78118837  0.20675022     0.07200
H598        H  0.73734837  0.77992510  0.22755636     0.08400
H599        H  0.70023044  0.79913355  0.22785763     0.07400
H600        H  0.67706950  0.64479842  0.24895577     0.02300
H601        H  0.65230068  0.64543568  0.22850761     0.02800
H602        H  0.63870417  0.66087391  0.25040739     0.06300
H603        H  0.68242379  0.64676653  0.17557835     0.05300
H604        H  0.68791027  0.68521372  0.18487522    -0.00500
H605        H  0.66144495  0.65851066  0.19613708     0.01000
H606        H  0.80151600  0.63620540  0.23939415     0.04600
H607        H  0.79585314  0.59625228  0.23233221     0.06600
H608        H  0.77329530  0.61184414  0.25097359     0.07400
C609        C  0.55216540  0.89289493  0.38097527    -0.22200
C610        C  0.55152513  0.86817395  0.36823196     0.09800
C611        C  0.53065287  0.84328652  0.37085689     0.10200
C612        C  0.51066609  0.84374559  0.38625790    -0.17100
C613        C  0.51089242  0.86862669  0.39890815    -0.27500
C614        C  0.53207137  0.89341790  0.39641962     0.18500
C615        C  0.57354675  0.86772647  0.35249058     0.12500
C616        C  0.52916344  0.81649185  0.35724698    -0.11900
H617        H  0.49409880  0.82501991  0.38814052     0.12800
C618        C  0.53479125  0.92013134  0.40999733    -0.22700
H619        H  0.56860639  0.91167586  0.37894756     0.08400
C620        C  0.56584536  0.88062812  0.33498146     0.04700
C621        C  0.58433867  0.87368107  0.31939762    -0.19900
C622        C  0.60993812  0.85375527  0.32098469    -0.12200
C623        C  0.61845777  0.84211181  0.33886644     0.13500
C624        C  0.60038477  0.84990184  0.35443683    -0.22700
C625        C  0.53723485  0.90023456  0.33260588    -0.05700
H626        H  0.57765171  0.88219327  0.30568261     0.15000
C627        C  0.64434428  0.81917840  0.34214055    -0.15900
H628        H  0.60583299  0.83989210  0.36798955     0.09300
H629        H  0.52905545  0.94215267  0.40272353     0.07200
H630        H  0.55897699  0.92155315  0.41529890     0.08400
H631        H  0.51942809  0.91772432  0.42235470     0.07400
H632        H  0.55184481  0.80436819  0.35681148     0.02300
H633        H  0.52347700  0.82519218  0.34301686     0.02800
H634        H  0.51115425  0.79928219  0.36129111     0.06300
H635        H  0.53448572  0.90831127  0.31792091     0.05300
H636        H  0.53880503  0.92095483  0.34182790    -0.00500
H637        H  0.51630632  0.88657821  0.33642613     0.01000
H638        H  0.66130443  0.82925324  0.35217121     0.04600
H639        H  0.65712012  0.81247942  0.32939591     0.06600
H640        H  0.63465260  0.79755604  0.34829560     0.07400
C641        C  0.64119580  0.64072239  0.35457953    -0.22200
C642        C  0.64473525  0.67215181  0.35904298     0.09800
C643        C  0.64469006  0.68161444  0.37796535     0.10200
C644        C  0.63929394  0.65950757  0.39200880    -0.17100
C645        C  0.63381877  0.62815532  0.38756218    -0.27500
C646        C  0.63571336  0.61850657  0.36855462     0.18500
C647        C  0.64489943  0.69500849  0.34359820     0.12500
C648        C  0.64978661  0.71510573  0.38328774    -0.11900
H649        H  0.63815212  0.66699497  0.40650273     0.12800
C650        C  0.63008932  0.58536537  0.36260321    -0.22700
H651        H  0.64120119  0.63381235  0.33996090     0.08400
C652        C  0.67103043  0.69961718  0.33206451     0.04700
C653        C  0.66947753  0.72146606  0.31750906    -0.19900
C654        C  0.64223789  0.73844138  0.31411957    -0.12200
C655        C  0.61598736  0.73358385  0.32571254     0.13500
C656        C  0.61769482  0.71180164  0.34023554    -0.22700
C657        C  0.70060487  0.68189374  0.33533347    -0.05700
H658        H  0.68964075  0.72535389  0.30874148     0.15000
C659        C  0.58650395  0.75201969  0.32343541    -0.15900
H660        H  0.59770674  0.70788812  0.34915518     0.09300
H661        H  0.63193682  0.58244574  0.34717242     0.07200
H662        H  0.60639607  0.57797732  0.36679674     0.08400
H663        H  0.64763698  0.56996930  0.36913438     0.07400
H664        H  0.63115466  0.72979338  0.37729362     0.02300
H665        H  0.67256544  0.72307865  0.37783501     0.02800
H666        H  0.64970339  0.71839898  0.39873100     0.06300
H667        H  0.71901762  0.68875364  0.32526329     0.05300
H668        H  0.69630898  0.65663715  0.33363950    -0.00500
H669        H  0.70922737  0.68649003  0.34974132     0.01000
H670        H  0.56922047  0.74632285  0.33445791     0.04600
H671        H  0.57568820  0.74675996  0.30967739     0.06600
H672        H  0.59162877  0.77723787  0.32443888     0.07400
C673        C  0.24000045  0.73368595  0.26032737    -0.22200
C674        C  0.23868131  0.73078383  0.24081984     0.09800
C675        C  0.25737765  0.70870792  0.23161359     0.10200
C676        C  0.27705608  0.68974888  0.24225477    -0.17100
C677        C  0.27811423  0.69229521  0.26185108    -0.27500
C678        C  0.25969596  0.71491697  0.27101239     0.18500
C679        C  0.21662718  0.75037163  0.23038592     0.12500
C680        C  0.25630563  0.70507189  0.21062210    -0.11900
H681        H  0.29144304  0.67264245  0.23529202     0.12800
C682        C  0.26095218  0.72094603  0.29183447    -0.22700
H683        H  0.22564186  0.75087495  0.26724842     0.08400
C684        C  0.18561891  0.74095775  0.22796555     0.04700
C685        C  0.16555378  0.75968790  0.21756290    -0.19900
C686        C  0.17571336  0.78771068  0.20952228    -0.12200
C687        C  0.20654736  0.79786828  0.21277540     0.13500
C688        C  0.22675093  0.77874820  0.22298638    -0.22700
C689        C  0.17391320  0.71081282  0.23603895    -0.05700
H690        H  0.14203446  0.75170946  0.21509780     0.15000
C691        C  0.21875580  0.82887989  0.20632720    -0.15900
H692        H  0.25051911  0.78609535  0.22531501     0.09300
H693        H  0.23781729  0.71639351  0.29809737     0.07200
H694        H  0.26725330  0.74561101  0.29436751     0.08400
H695        H  0.27825033  0.70661887  0.29925977     0.07400
H696        H  0.26313993  0.72722895  0.20383541     0.02300
H697        H  0.23244200  0.69879211  0.20613205     0.02800
H698        H  0.27231453  0.68662851  0.20568126     0.06300
H699        H  0.14906047  0.70682695  0.23268414     0.05300
H700        H  0.17642798  0.71114316  0.25152363    -0.00500
H701        H  0.18745110  0.69113215  0.23023633     0.01000
H702        H  0.22869303  0.84157689  0.21849391     0.04600
H703        H  0.20062236  0.84404391  0.20032297     0.06600
H704        H  0.23729951  0.82531545  0.19575242     0.07400
C705        C  0.48564538  0.60840496  0.37091093    -0.22200
C706        C  0.47072142  0.58114517  0.36510894     0.09800
C707        C  0.48092772  0.55213239  0.37173139     0.10200
C708        C  0.50576108  0.55108187  0.38440948    -0.17100
C709        C  0.52036087  0.57844284  0.39056292    -0.27500
C710        C  0.51045697  0.60747130  0.38354596     0.18500
C711        C  0.44468757  0.58399624  0.35184762     0.12500
C712        C  0.46547038  0.52248026  0.36551712    -0.11900
H713        H  0.51365384  0.52885608  0.38967008     0.12800
C714        C  0.52668531  0.63736615  0.38865861    -0.22700
H715        H  0.47782738  0.63051533  0.36542584     0.08400
C716        C  0.41526620  0.59396593  0.35791744     0.04700
C717        C  0.39253892  0.60088842  0.34455699    -0.19900
C718        C  0.39884264  0.59860743  0.32528264    -0.12200
C719        C  0.42782598  0.58676686  0.31928877     0.13500
C720        C  0.45041150  0.57954426  0.33272893    -0.22700
C721        C  0.40817419  0.59799404  0.37845896    -0.05700
H722        H  0.37032436  0.60978301  0.34920014     0.15000
C723        C  0.43518140  0.58161787  0.29886403    -0.15900
H724        H  0.47309762  0.57157183  0.32830270     0.09300
H725        H  0.51698692  0.65747373  0.38090329     0.07200
H726        H  0.55173812  0.63567736  0.38516855     0.08400
H727        H  0.52389859  0.64217626  0.40384134     0.07400
H728        H  0.46766939  0.51986951  0.35009440     0.02300
H729        H  0.44051505  0.52302097  0.36934061     0.02800
H730        H  0.47612404  0.50182884  0.37221868     0.06300
H731        H  0.38386304  0.60555687  0.38078574     0.05300
H732        H  0.42376442  0.61580164  0.38464529    -0.00500
H733        H  0.41163244  0.57560853  0.38585903     0.01000
H734        H  0.45785665  0.56981840  0.29698995     0.04600
H735        H  0.43656654  0.60412724  0.29138811     0.06600
H736        H  0.41700995  0.56678153  0.29237483     0.07400
C737        C  0.39028474  0.74247878  0.34491697    -0.22200
C738        C  0.36610511  0.76085772  0.35181375     0.09800
C739        C  0.33569929  0.75659735  0.34497626     0.10200
C740        C  0.32988502  0.73281110  0.33193924    -0.17100
C741        C  0.35403493  0.71400150  0.32523452    -0.27500
C742        C  0.38469092  0.71909955  0.33167202     0.18500
C743        C  0.37326710  0.78283444  0.36713913     0.12500
C744        C  0.30960183  0.77728219  0.35132251    -0.11900
H745        H  0.30646900  0.72893103  0.32693471     0.12800
C746        C  0.41134786  0.69895590  0.32541632    -0.22700
H747        H  0.41353556  0.74595992  0.35033937     0.08400
C748        C  0.37029748  0.77373344  0.38603530     0.04700
C749        C  0.38087988  0.79366264  0.40019352    -0.19900
C750        C  0.39510849  0.82211684  0.39590310    -0.12200
C751        C  0.39797384  0.83128270  0.37691734     0.13500
C752        C  0.38668188  0.81157079  0.36275553    -0.22700
C753        C  0.35750685  0.74229261  0.39122885    -0.05700
H754        H  0.37917187  0.78642634  0.41470755     0.15000
C755        C  0.41477864  0.86061216  0.37141456    -0.15900
H756        H  0.38951057  0.81792923  0.34815798     0.09300
H757        H  0.43329972  0.70526819  0.33264650     0.07200
H758        H  0.41522844  0.70174295  0.31013931     0.08400
H759        H  0.40622176  0.67424647  0.32861054     0.07400
H760        H  0.31509024  0.80174939  0.34771692     0.02300
H761        H  0.30639085  0.77544850  0.36669958     0.02800
H762        H  0.28733630  0.77096518  0.34445518     0.06300
H763        H  0.35733556  0.73873027  0.40664416     0.05300
H764        H  0.37200349  0.72380456  0.38486031    -0.00500
H765        H  0.33335397  0.73983696  0.38609257     0.01000
H766        H  0.41605630  0.86331342  0.35595247     0.04600
H767        H  0.43888415  0.86012657  0.37691041     0.06600
H768        H  0.40243232  0.88111531  0.37713046     0.07400
C769        C  0.89804677  0.95430970  0.99818727    -0.22200
C770        C  0.91982990  0.96929852  0.00965906     0.09800
C771        C  0.91831329  0.96573004  0.02926085     0.10200
C772        C  0.89588258  0.94584927  0.03693354    -0.17100
C773        C  0.87528827  0.92925185  0.02538417    -0.27500
C774        C  0.87562939  0.93439301  0.00581519     0.18500
C775        C  0.94460644  0.98778434  0.00069480     0.12500
C776        C  0.94116155  0.98186845  0.04195341    -0.11900
H777        H  0.89571398  0.94175493  0.05192735     0.12800
C778        C  0.85262844  0.91951044  0.99265763    -0.22700
H779        H  0.89893939  0.95773939  0.98313924     0.08400
C780        C  0.97110335  0.97347688  0.99305450     0.04700
C781        C  0.99278014  0.99154767  0.98326724    -0.19900
C782        C  0.98860026  0.02368183  0.98091066    -0.12200
C783        C  0.96247737  0.03815560  0.98943159     0.13500
C784        C  0.94088032  0.01988074  0.99918508    -0.22700
C785        C  0.97628290  0.93906623  0.99508796    -0.05700
H786        H  0.01275298  0.98030243  0.97705036     0.15000
C787        C  0.95621355  0.07249965  0.98787338    -0.15900
H788        H  0.92047089  0.03052247  0.00529234     0.09300
H789        H  0.86497674  0.90395492  0.98275166     0.07200
H790        H  0.84053269  0.93784075  0.98454231     0.08400
H791        H  0.83457069  0.90593898  0.00007668     0.07400
H792        H  0.93909217  0.00739290  0.04027191     0.02300
H793        H  0.96512567  0.97464160  0.03832004     0.02800
H794        H  0.93701916  0.97615776  0.05692339     0.06300
H795        H  0.99837083  0.93163131  0.98846992     0.05300
H796        H  0.95704126  0.92609704  0.98829786    -0.00500
H797        H  0.97721637  0.93286631  0.01017927     0.01000
H798        H  0.93460540  0.07928333  0.99528699     0.04600
H799        H  0.95341551  0.07908506  0.97292799     0.06600
H800        H  0.97556094  0.08582374  0.99429876     0.07400
C801        C  0.93349611  0.08872380  0.88568654    -0.22200
C802        C  0.92887644  0.06027984  0.87655394     0.09800
C803        C  0.94346703  0.03339543  0.88340140     0.10200
C804        C  0.96371458  0.03586873  0.89872248    -0.17100
C805        C  0.96995098  0.06469170  0.90730963    -0.27500
C806        C  0.95380597  0.09138494  0.90099493     0.18500
C807        C  0.91166484  0.06027566  0.85860747     0.12500
C808        C  0.93796894  0.00223385  0.87437330    -0.11900
H809        H  0.97547944  0.01521612  0.90364214     0.12800
C810        C  0.95879799  0.12303114  0.90954093    -0.22700
H811        H  0.92213842  0.10925206  0.88023024     0.08400
C812        C  0.87923918  0.06393975  0.85788206     0.04700
C813        C  0.86488262  0.06901597  0.84049519    -0.19900
C814        C  0.88234727  0.07111311  0.82386549    -0.12200
C815        C  0.91466826  0.06514684  0.82456124     0.13500
C816        C  0.92882487  0.05978005  0.84195350    -0.22700
C817        C  0.85997250  0.06315983  0.87548070    -0.05700
H818        H  0.84011861  0.07324151  0.84009619     0.15000
C819        C  0.93458008  0.06452718  0.80719569    -0.15900
H820        H  0.95373996  0.05659937  0.84269307     0.09300
H821        H  0.95204104  0.12266966  0.92455095     0.07200
H822        H  0.94457297  0.14108004  0.90252400     0.08400
H823        H  0.98351666  0.12995427  0.90815009     0.07400
H824        H  0.94583537  0.00266302  0.85956960     0.02300
H825        H  0.91284042  0.99657431  0.87480876     0.02800
H826        H  0.95075541  0.98346097  0.88169659     0.06300
H827        H  0.83487212  0.06590751  0.87240107     0.05300
H828        H  0.86707283  0.08225929  0.88502213    -0.00500
H829        H  0.86328758  0.04058635  0.88269605     0.01000
H830        H  0.93633345  0.08804612  0.80098846     0.04600
H831        H  0.92456583  0.04806121  0.79685345     0.06600
H832        H  0.95858709  0.05679894  0.81034643     0.07400
C833        C  0.96876045  0.41632189  0.98686931    -0.22200
C834        C  0.98164984  0.44259831  0.97836465     0.09800
C835        C  0.97291652  0.45069589  0.95999449     0.10200
C836        C  0.95143267  0.43208197  0.95041379    -0.17100
C837        C  0.93875930  0.40530592  0.95869943    -0.27500
C838        C  0.94745697  0.39741997  0.97727306     0.18500
C839        C  0.00338966  0.46203683  0.98925238     0.12500
C840        C  0.98643640  0.47886684  0.95050056    -0.11900
H841        H  0.94503878  0.43814355  0.93618891     0.12800
C842        C  0.93399011  0.36970835  0.98729554    -0.22700
H843        H  0.97542848  0.41066471  0.00111391     0.08400
C844        C  0.99241087  0.48656504  0.00047033     0.04700
C845        C  0.01371381  0.50477883  0.01037532    -0.19900
C846        C  0.04568124  0.49872622  0.00958996    -0.12200
C847        C  0.05673344  0.47400831  0.99842081     0.13500
C848        C  0.03531090  0.45590887  0.98832916    -0.22700
C849        C  0.95821655  0.49326661  0.00214861    -0.05700
H850        H  0.00528560  0.52348795  0.01918730     0.15000
C851        C  0.09071341  0.46670710  0.99636913    -0.15900
H852        H  0.04353102  0.43702026  0.97959951     0.09300
H853        H  0.94187418  0.36852717  0.00210275     0.07200
H854        H  0.94148019  0.34794823  0.98032505     0.08400
H855        H  0.90827445  0.37114766  0.98732123     0.07400
H856        H  0.01202944  0.47652681  0.94956254     0.02300
H857        H  0.98075381  0.50006248  0.95865142     0.02800
H858        H  0.97718379  0.48181476  0.93608210     0.06300
H859        H  0.95365630  0.51324089  0.01160872     0.05300
H860        H  0.94603550  0.47265333  0.00791221    -0.00500
H861        H  0.94844952  0.49883399  0.98816153     0.01000
H862        H  0.09524717  0.44285122  0.00154715     0.04600
H863        H  0.10587210  0.48304622  0.00414466     0.06600
H864        H  0.09729399  0.46799494  0.98134263     0.07400
C865        C  0.82753922  0.28436189  0.85642044    -0.22200
C866        C  0.82729700  0.25272026  0.86076953     0.09800
C867        C  0.83096434  0.24308861  0.87948209     0.10200
C868        C  0.83695561  0.26534033  0.89334366    -0.17100
C869        C  0.84002724  0.29701469  0.88887432    -0.27500
C870        C  0.83392794  0.30677460  0.87021371     0.18500
C871        C  0.82834845  0.22997193  0.84531231     0.12500
C872        C  0.82987545  0.20918436  0.88465497    -0.11900
H873        H  0.84095587  0.25766585  0.90759988     0.12800
C874        C  0.83588447  0.34030904  0.86431566    -0.22700
H875        H  0.82461280  0.29135160  0.84193574     0.08400
C876        C  0.80137144  0.21789803  0.83689372     0.04700
C877        C  0.80424679  0.19493503  0.82301924    -0.19900
C878        C  0.83355359  0.18409755  0.81733441    -0.12200
C879        C  0.86061423  0.19679887  0.82568480     0.13500
C880        C  0.85754727  0.21964143  0.83951587    -0.22700
C881        C  0.76973684  0.22902040  0.84272204    -0.05700
H882        H  0.78351903  0.18533037  0.81663283     0.15000
C883        C  0.89277679  0.18564084  0.82081139    -0.15900
H884        H  0.87807842  0.22917603  0.84618837     0.09300
H885        H  0.83027944  0.34334372  0.84923101     0.07200
H886        H  0.85977123  0.34925412  0.86656189     0.08400
H887        H  0.81903654  0.35431904  0.87247934     0.07400
H888        H  0.84858285  0.19640509  0.87727519     0.02300
H889        H  0.80707787  0.19921529  0.88058770     0.02800
H890        H  0.83302752  0.20564616  0.89995411     0.06300
H891        H  0.75102023  0.21710488  0.83476834     0.05300
H892        H  0.76780557  0.25434976  0.84013022    -0.00500
H893        H  0.76613549  0.22442303  0.85787285     0.01000
H894        H  0.91082113  0.19700195  0.82958862     0.04600
H895        H  0.89814775  0.19118036  0.80597815     0.06600
H896        H  0.89443563  0.16020654  0.82313519     0.07400
C897        C  0.99034171  0.31253723  0.87027719    -0.22200
C898        C  0.00289837  0.33957916  0.86247699     0.09800
C899        C  0.99213266  0.36886395  0.86827872     0.10200
C900        C  0.96887178  0.37047725  0.88195086    -0.17100
C901        C  0.95622156  0.34342720  0.88990757    -0.27500
C902        C  0.96701494  0.31401066  0.88391624     0.18500
C903        C  0.02725252  0.33634045  0.84813798     0.12500
C904        C  0.00518409  0.39827070  0.86001494    -0.11900
H905        H  0.96048469  0.39299778  0.88644097     0.12800
C906        C  0.95328807  0.28411984  0.89116575    -0.22700
H907        H  0.99874913  0.29016563  0.86552141     0.08400
C908        C  0.05841229  0.33150847  0.85322888     0.04700
C909        C  0.08016084  0.32478810  0.83924827    -0.19900
C910        C  0.07134546  0.32270554  0.82031623    -0.12200
C911        C  0.04050909  0.33022840  0.81514075     0.13500
C912        C  0.01869239  0.33632402  0.82921691    -0.22700
C913        C  0.06844951  0.33255973  0.87345191    -0.05700
H914        H  0.10378291  0.31939103  0.84328494     0.15000
C915        C  0.02980580  0.33259448  0.79506992    -0.15900
H916        H  0.99475535  0.34084292  0.82543468     0.09300
H917        H  0.95800036  0.28179387  0.90638712     0.07200
H918        H  0.96341105  0.26352123  0.88408073     0.08400
H919        H  0.92786401  0.28380571  0.88862954     0.07400
H920        H  0.00099115  0.39861196  0.84466299     0.02300
H921        H  0.03052831  0.39948396  0.86268305     0.02800
H922        H  0.99427786  0.41924738  0.86620481     0.06300
H923        H  0.09374200  0.32840989  0.87498090     0.05300
H924        H  0.05596309  0.31446884  0.88156861    -0.00500
H925        H  0.06313987  0.35572084  0.87947421     0.01000
H926        H  0.01290476  0.31377840  0.79200232     0.04600
H927        H  0.04907046  0.33154308  0.78483703     0.06600
H928        H  0.01826008  0.35533269  0.79289808     0.07400
C929        C  0.14122027  0.17966846  0.85157666    -0.22200
C930        C  0.11330148  0.16312791  0.85161832     0.09800
C931        C  0.09169543  0.16766547  0.83705275     0.10200
C932        C  0.09822915  0.18942470  0.82296783    -0.17100
C933        C  0.12534507  0.20770374  0.82346712    -0.27500
C934        C  0.14752219  0.20212824  0.83785578     0.18500
C935        C  0.10478805  0.14595382  0.86878824     0.12500
C936        C  0.06101805  0.15079448  0.83692849    -0.11900
H937        H  0.08116051  0.19330086  0.81207183     0.12800
C938        C  0.17750789  0.22005737  0.83941319    -0.22700
H939        H  0.15740198  0.17618157  0.86301931     0.08400
C940        C  0.10891939  0.11371450  0.87072942     0.04700
C941        C  0.09858498  0.09900385  0.88717873    -0.19900
C942        C  0.08453741  0.11593160  0.90181762    -0.12200
C943        C  0.08213523  0.14877266  0.90005608     0.13500
C944        C  0.09220270  0.16310342  0.88354522    -0.22700
C945        C  0.12433419  0.09500298  0.85553545    -0.05700
H946        H  0.10100266  0.07406150  0.88840512     0.15000
C947        C  0.06886013  0.16933321  0.91520166    -0.15900
H948        H  0.08978643  0.18801703  0.88193290     0.09300
H949        H  0.19233362  0.21130079  0.85098703     0.10400
H950        H  0.17265674  0.24485131  0.84242617     0.08400
H951        H  0.19096433  0.21787262  0.82624357     0.07400
H952        H  0.04779568  0.15649515  0.84982798     0.02300
H953        H  0.06487347  0.12537501  0.83633710     0.02800
H954        H  0.04661264  0.15737826  0.82465675     0.06300
H955        H  0.12599665  0.07007614  0.85935598     0.05300
H956        H  0.14817356  0.10395184  0.85313931    -0.00500
H957        H  0.11096230  0.09676783  0.84230299     0.01000
H958        H  0.08191526  0.16599023  0.92846442     0.04600
H959        H  0.04389520  0.16404058  0.91729511     0.06600
H960        H  0.07049502  0.19433244  0.91151903     0.07400
C961        C  0.58294564  0.98546865  0.49145256    -0.22200
C962        C  0.56601658  0.96455531  0.50246217     0.09800
C963        C  0.57137467  0.96293171  0.52191254     0.10200
C964        C  0.59217008  0.98394100  0.53017064    -0.17100
C965        C  0.60744680  0.00650151  0.51935413    -0.27500
C966        C  0.60367025  0.00657320  0.49966807     0.18500
C967        C  0.54204157  0.94544305  0.49323910     0.12500
C968        C  0.55473298  0.93948458  0.53392327    -0.11900
H969        H  0.59523283  0.98381812  0.54525493     0.12800
C970        C  0.62155316  0.02856584  0.48727067    -0.22700
H971        H  0.57914796  0.98588375  0.47643159     0.08400
C972        C  0.51121783  0.95601157  0.49154967     0.04700
C973        C  0.48983699  0.93841309  0.48117685    -0.19900
C974        C  0.49867761  0.91057464  0.47246734    -0.12200
C975        C  0.52967502  0.89996453  0.47434506     0.13500
C976        C  0.55090250  0.91755894  0.48480725    -0.22700
C977        C  0.50117749  0.98624895  0.50026855    -0.05700
H978        H  0.46623804  0.94665877  0.47960696     0.15000
C979        C  0.54114734  0.87115025  0.46453548    -0.15900
H980        H  0.57479947  0.91001559  0.48602139     0.09300
H981        H  0.61735105  0.02373783  0.47218300     0.07200
H982        H  0.64679913  0.02605215  0.48995944     0.08400
H983        H  0.61444220  0.05287691  0.48997539     0.07400
H984        H  0.56034601  0.91569140  0.52900291     0.02300
H985        H  0.52929744  0.94304000  0.53302070     0.02800
H986        H  0.56165049  0.94140461  0.54887994     0.06300
H987        H  0.47631561  0.99116062  0.49749747     0.05300
H988        H  0.51512909  0.00563143  0.49441182    -0.00500
H989        H  0.50457106  0.98541969  0.51567526     0.01000
H990        H  0.56639964  0.86756985  0.46672185     0.04600
H991        H  0.53706073  0.87313227  0.44921117     0.06600
H992        H  0.52899783  0.85038145  0.47008644     0.07400
C993        C  0.23384544  0.19117698  0.75505391    -0.22200
C994        C  0.23049844  0.18939972  0.73557424     0.09800
C995        C  0.20705875  0.20649887  0.72650645     0.10200
C996        C  0.18747869  0.22540632  0.73721534    -0.17100
C997        C  0.19136026  0.22798741  0.75667585    -0.27500
C998        C  0.21459238  0.21038916  0.76576979     0.18500
C999        C  0.25345709  0.17150837  0.72478948     0.12500
C1000       C  0.20325644  0.20533451  0.70552685    -0.11900
H1001       H  0.16943425  0.23869063  0.73034368     0.12800
C1002       C  0.21850878  0.21087653  0.78675907    -0.22700
H1003       H  0.25196206  0.17783296  0.76181501     0.08400
C1004       C  0.28303255  0.18404872  0.72117478     0.04700
C1005       C  0.30404810  0.16693593  0.71049030    -0.19900
C1006       C  0.29601906  0.13782605  0.70304246    -0.12200
C1007       C  0.26637414  0.12515749  0.70672261     0.13500
C1008       C  0.24542348  0.14217243  0.71774108    -0.22700
C1009       C  0.29212972  0.21583448  0.72818098    -0.05700
H1010       H  0.32665041  0.17681232  0.70745315     0.15000
C1011       C  0.25703264  0.09362790  0.69949666    -0.15900
H1012       H  0.22259468  0.13280489  0.72071347     0.09300
H1013       H  0.23677339  0.19449611  0.79147320     0.07200
H1014       H  0.19637017  0.20397221  0.79352580     0.08400
H1015       H  0.22534156  0.23444541  0.79151844     0.07400
H1016       H  0.19796932  0.18122085  0.70103396     0.02300
H1017       H  0.22499422  0.21319184  0.69864593     0.02800
H1018       H  0.18407841  0.22052542  0.70069072     0.06300
H1019       H  0.31589971  0.22237786  0.72364292     0.05300
H1020       H  0.29156739  0.21631599  0.74372799    -0.00500
H1021       H  0.27575865  0.23343961  0.72262964     0.01000
H1022       H  0.23364219  0.08677753  0.70455990     0.04600
H1023       H  0.27388314  0.07594189  0.70438930     0.06600
H1024       H  0.25634973  0.09374978  0.68395346     0.07400
C1025       C  0.45138438  0.07819088  0.60137683    -0.22200
C1026       C  0.48059804  0.07300633  0.60934919     0.09800
C1027       C  0.48343719  0.06916558  0.62886182     0.10200
C1028       C  0.45706366  0.07197705  0.64013281    -0.17100
C1029       C  0.42785571  0.07890196  0.63241348    -0.27500
C1030       C  0.42483949  0.08123740  0.61266083     0.18500
C1031       C  0.50839221  0.07402004  0.59730034     0.12500
C1032       C  0.51443854  0.06271050  0.63781830    -0.11900
H1033       H  0.45952201  0.06967882  0.65518906     0.12800
C1034       C  0.39428807  0.08838272  0.60337441    -0.22700
H1035       H  0.44960129  0.08096964  0.58631426     0.08400
C1036       C  0.51866065  0.04772293  0.58733578     0.04700
C1037       C  0.54654597  0.04944025  0.57727581    -0.19900
C1038       C  0.56405064  0.07692609  0.57692862    -0.12200
C1039       C  0.55361232  0.10335707  0.58682003     0.13500
C1040       C  0.52570781  0.10157810  0.59679022    -0.22700
C1041       C  0.50045450  0.01786327  0.58758515    -0.05700
H1042       H  0.55479942  0.02926260  0.56967806     0.15000
C1043       C  0.57180731  0.13327070  0.58785896    -0.15900
H1044       H  0.51776505  0.12159764  0.60466002     0.09300
H1045       H  0.37731895  0.06966079  0.60645384     0.07200
H1046       H  0.39659082  0.08999757  0.58789869     0.08400
H1047       H  0.38529976  0.11097010  0.60853116     0.07400
H1048       H  0.53067886  0.08218497  0.63502272     0.02300
H1049       H  0.52426000  0.04095387  0.63197178     0.02800
H1050       H  0.51246141  0.05997049  0.65325007     0.06300
H1051       H  0.51188074  0.99950071  0.57911699     0.05300
H1052       H  0.47695086  0.02184914  0.58171200    -0.00500
H1053       H  0.49826804  0.00935162  0.60220763     0.01000
H1054       H  0.55768375  0.15249048  0.58202318     0.04600
H1055       H  0.59399861  0.13243948  0.58007673     0.06600
H1056       H  0.57734500  0.13860055  0.60272729     0.07400
C1057       C  0.44399889  0.47300262  0.49066232    -0.22200
C1058       C  0.47472009  0.46333076  0.48802236     0.09800
C1059       C  0.48470464  0.43473013  0.49533386     0.10200
C1060       C  0.46390189  0.41671157  0.50564752    -0.17100
C1061       C  0.43334646  0.42662440  0.50888042    -0.27500
C1062       C  0.42293289  0.45477025  0.50086468     0.18500
C1063       C  0.49629513  0.48317186  0.47741231     0.12500
C1064       C  0.51738548  0.42334034  0.49236739    -0.11900
H1065       H  0.47194757  0.39517286  0.51179666     0.12800
C1066       C  0.38984701  0.46577223  0.50218052    -0.22700
H1067       H  0.43640225  0.49477995  0.48461352     0.08400
C1068       C  0.49738408  0.48205935  0.45769910     0.04700
C1069       C  0.51979358  0.49963472  0.44827045    -0.19900
C1070       C  0.54094918  0.51829362  0.45814910    -0.12200
C1071       C  0.54011911  0.51904965  0.47794811     0.13500
C1072       C  0.51751784  0.50159805  0.48734122    -0.22700
C1073       C  0.47505690  0.46220041  0.44668339    -0.05700
H1074       H  0.52043513  0.49930623  0.43307393     0.15000
C1075       C  0.56332052  0.53684244  0.48959444    -0.15900
H1076       H  0.51687599  0.50175530  0.50253824     0.09300
H1077       H  0.38063400  0.46979426  0.48784953     0.07200
H1078       H  0.38898391  0.48792625  0.51012775     0.08400
H1079       H  0.37421785  0.44875445  0.50897187     0.07400
H1080       H  0.53412874  0.43991249  0.49870402     0.02300
H1081       H  0.52216583  0.42123334  0.47712933     0.02800
H1082       H  0.52118341  0.40025948  0.49888905     0.06300
H1083       H  0.47926011  0.46391619  0.43135981     0.05300
H1084       H  0.45089950  0.46976788  0.44948336    -0.00500
H1085       H  0.47764233  0.43751691  0.45084772     0.01000
H1086       H  0.55111659  0.55480982  0.49795477     0.04600
H1087       H  0.58152494  0.54831935  0.48110347     0.06600
H1088       H  0.57522026  0.52064512  0.49931579     0.07400
C1089       C  0.36764448  0.30072282  0.62042560    -0.22200
C1090       C  0.35288922  0.27309849  0.61512561     0.09800
C1091       C  0.33885838  0.27065154  0.59733951     0.10200
C1092       C  0.34197804  0.29518763  0.58465399    -0.17100
C1093       C  0.35905736  0.32184006  0.58932533    -0.27500
C1094       C  0.37131299  0.32514154  0.60765159     0.18500
C1095       C  0.35642271  0.24547193  0.62710008     0.12500
C1096       C  0.32230537  0.24142256  0.59135750    -0.11900
H1097       H  0.33277360  0.29274759  0.57057653     0.12800
C1098       C  0.39060299  0.35256148  0.61384661    -0.22700
H1099       H  0.37835944  0.30231072  0.63415140     0.08400
C1100       C  0.38374777  0.22747959  0.62629161     0.04700
C1101       C  0.38519894  0.19956211  0.63629014    -0.19900
C1102       C  0.35975186  0.18914103  0.64671696    -0.12200
C1103       C  0.33279575  0.20773565  0.64807580     0.13500
C1104       C  0.33150128  0.23579086  0.63820824    -0.22700
C1105       C  0.41083885  0.23711997  0.61426099    -0.05700
H1106       H  0.40569617  0.18511039  0.63527921     0.15000
C1107       C  0.30510144  0.19880172  0.65980511    -0.15900
H1108       H  0.31067476  0.24982993  0.63880901     0.09300
H1109       H  0.41408465  0.34447756  0.61796019     0.07200
H1110       H  0.37947482  0.36371244  0.62615919     0.08400
H1111       H  0.39361348  0.37047544  0.60293185     0.07400
H1112       H  0.30249392  0.23687765  0.60090638     0.02300
H1113       H  0.33853117  0.22145629  0.59183884     0.02800
H1114       H  0.31310837  0.24326664  0.57685709     0.06300
H1115       H  0.43007245  0.22004672  0.61494953     0.05300
H1116       H  0.41992731  0.25989836  0.61907548    -0.00500
H1117       H  0.40334710  0.23905505  0.59941552     0.01000
H1118       H  0.30056510  0.21724620  0.67033827     0.04600
H1119       H  0.30843582  0.17679343  0.66751294     0.06600
H1120       H  0.28438882  0.19627416  0.65067320     0.07400
C1121       C  0.72283620  0.23686501  0.70698986    -0.22200
C1122       C  0.74847139  0.24504118  0.71786300     0.09800
C1123       C  0.75636849  0.27662691  0.72017854     0.10200
C1124       C  0.73752453  0.29955739  0.71197216    -0.17100
C1125       C  0.71085513  0.29136541  0.70177854    -0.27500
C1126       C  0.70401748  0.25943442  0.69880168     0.18500
C1127       C  0.76498788  0.21985178  0.72771934     0.12500
C1128       C  0.78419244  0.28597727  0.73162335    -0.11900
H1129       H  0.74309596  0.32388764  0.71395771     0.12800
C1130       C  0.67768984  0.24773973  0.68677133    -0.22700
H1131       H  0.71719788  0.21249826  0.70509546     0.08400
C1132       C  0.75284083  0.20729196  0.74440274     0.04700
C1133       C  0.76790588  0.18224365  0.75288737    -0.19900
C1134       C  0.79513252  0.16958758  0.74524840    -0.12200
C1135       C  0.80710272  0.18198616  0.72832697     0.13500
C1136       C  0.79165757  0.20690256  0.71969085    -0.22700
C1137       C  0.72417636  0.22065597  0.75340178    -0.05700
H1138       H  0.75886975  0.17317801  0.76596552     0.15000
C1139       C  0.83557576  0.16873816  0.71907942    -0.15900
H1140       H  0.80036865  0.21637636  0.70663981     0.09300
H1141       H  0.66129466  0.23408997  0.69550025     0.07200
H1142       H  0.68703563  0.23245930  0.67557009     0.08400
H1143       H  0.66461605  0.26628062  0.67977577     0.07400
H1144       H  0.80548313  0.27588034  0.72536469     0.02300
H1145       H  0.78159206  0.27734251  0.74619600     0.02800
H1146       H  0.78702740  0.31159525  0.73214776     0.06300
H1147       H  0.71816363  0.20847120  0.76662484     0.05300
H1148       H  0.70413568  0.21847142  0.74371793    -0.00500
H1149       H  0.72805568  0.24555129  0.75672323     0.01000
H1150       H  0.84018970  0.17984593  0.70531459     0.04600
H1151       H  0.83236111  0.14346251  0.71667252     0.06600
H1152       H  0.85626136  0.17270573  0.72801932     0.07400
C1153       C  0.54051295  0.40095343  0.63259040    -0.22200
C1154       C  0.54775450  0.39433168  0.61389069     0.09800
C1155       C  0.57893008  0.38991730  0.60858413     0.10200
C1156       C  0.60194186  0.38922886  0.62250346    -0.17100
C1157       C  0.59431284  0.39299681  0.64152303    -0.27500
C1158       C  0.56351084  0.40085536  0.64645809     0.18500
C1159       C  0.52200487  0.39058443  0.60040938     0.12500
C1160       C  0.58770652  0.38510029  0.58835316    -0.11900
H1161       H  0.62553866  0.38339591  0.61863641     0.12800
C1162       C  0.55412817  0.40900591  0.66619193    -0.22700
H1163       H  0.51660684  0.40540960  0.63646733     0.08400
C1164       C  0.50913496  0.36108485  0.59661012     0.04700
C1165       C  0.48333952  0.35880423  0.58470932    -0.19900
C1166       C  0.46995231  0.38535494  0.57671374    -0.12200
C1167       C  0.48375299  0.41480078  0.57995901     0.13500
C1168       C  0.50930569  0.41702239  0.59205790    -0.22700
C1169       C  0.52194811  0.33216598  0.60561238    -0.05700
H1170       H  0.47286438  0.33627739  0.58218947     0.15000
C1171       C  0.47307228  0.44421623  0.57051806    -0.15900
H1172       H  0.51956340  0.43954518  0.59491737     0.09300
H1173       H  0.53784858  0.39119248  0.67166562     0.07200
H1174       H  0.54236150  0.43191475  0.66623143     0.08400
H1175       H  0.57426908  0.41094832  0.67576613     0.07400
H1176       H  0.58054712  0.40562001  0.58001950     0.02300
H1177       H  0.57600879  0.36415907  0.58266390     0.02800
H1178       H  0.61312337  0.38202876  0.58664962     0.06300
H1179       H  0.50887196  0.31109547  0.60128828     0.05300
H1180       H  0.52047295  0.33420561  0.62109899    -0.00500
H1181       H  0.54654652  0.32890077  0.60154035     0.01000
H1182       H  0.46356311  0.46040742  0.58117444     0.04600
H1183       H  0.45542444  0.44027892  0.55950349     0.06600
H1184       H  0.49313357  0.45551222  0.56351450     0.07400
C1185       C  0.63469043  0.24302876  0.61745394    -0.22200
C1186       C  0.66344374  0.22789096  0.61679194     0.09800
C1187       C  0.68889149  0.23990412  0.62683286     0.10200
C1188       C  0.68496424  0.26687291  0.63748063    -0.17100
C1189       C  0.65608267  0.28175201  0.63850551    -0.27500
C1190       C  0.63066018  0.27002817  0.62816461     0.18500
C1191       C  0.66639507  0.19949252  0.60540986     0.12500
C1192       C  0.71990324  0.22385230  0.62665780    -0.11900
H1193       H  0.70431988  0.27586176  0.64556516     0.12800
C1194       C  0.59948761  0.28581906  0.62757151    -0.22700
H1195       H  0.61534159  0.23376745  0.60948062     0.08400
C1196       C  0.65617239  0.17053223  0.61219853     0.04700
C1197       C  0.65780269  0.14451674  0.60045755    -0.19900
C1198       C  0.66908232  0.14703241  0.58206490    -0.12200
C1199       C  0.68109837  0.17572709  0.57571461     0.13500
C1200       C  0.67932094  0.20173431  0.58745984    -0.22700
C1201       C  0.64295611  0.16729123  0.63164597    -0.05700
H1202       H  0.64848958  0.12252857  0.60527719     0.15000
C1203       C  0.69623217  0.17964264  0.55682067    -0.15900
H1204       H  0.68780390  0.22399570  0.58253428     0.09300
H1205       H  0.58153736  0.27011896  0.63347580     0.07200
H1206       H  0.59339144  0.29115933  0.61279974     0.08400
H1207       H  0.59897366  0.30802021  0.63541374     0.07400
H1208       H  0.72909670  0.22301215  0.61213844     0.02300
H1209       H  0.71729864  0.19982211  0.63205064     0.02800
H1210       H  0.73715360  0.23611803  0.63557307     0.06300
H1211       H  0.63625819  0.14292658  0.63475999     0.05300
H1212       H  0.62196441  0.18197711  0.63307505    -0.00500
H1213       H  0.66048658  0.17472756  0.64214642     0.01000
H1214       H  0.68238935  0.19592129  0.54815717     0.04600
H1215       H  0.69881947  0.15744456  0.54911692     0.06600
H1216       H  0.71989794  0.18939047  0.55871694     0.07400
C1217       C  0.82233113  0.04049107  0.48542733    -0.22200
C1218       C  0.81000750  0.06965398  0.48974712     0.09800
C1219       C  0.82588086  0.09673673  0.48419204     0.10200
C1220       C  0.85388132  0.09402069  0.47436211    -0.17100
C1221       C  0.86627696  0.06483021  0.46970677    -0.27500
C1222       C  0.85015550  0.03760773  0.47536587     0.18500
C1223       C  0.78044344  0.07130414  0.50019362     0.12500
C1224       C  0.81293922  0.12849129  0.48830437    -0.11900
H1225       H  0.86583420  0.11494049  0.46996943     0.12800
C1226       C  0.86206669  0.00543570  0.47123564    -0.22700
H1227       H  0.80992956  0.01986952  0.48990367     0.08400
C1228       C  0.75171204  0.06572619  0.49132113     0.04700
C1229       C  0.72430857  0.06797586  0.50181594    -0.19900
C1230       C  0.72509647  0.07546864  0.52095587    -0.12200
C1231       C  0.75389740  0.08168433  0.52973550     0.13500
C1232       C  0.78125197  0.07909322  0.51925428    -0.22700
C1233       C  0.74998111  0.05764741  0.47079564    -0.05700
H1234       H  0.70216997  0.06337125  0.49513537     0.15000
C1235       C  0.75670590  0.09234258  0.54981169    -0.15900
H1236       H  0.80340792  0.08368851  0.52592034     0.09300
H1237       H  0.84720987  0.98721074  0.47763408     0.07200
H1238       H  0.88579190  0.00274358  0.47701905     0.08400
H1239       H  0.86224922  0.00125069  0.45588848     0.07400
H1240       H  0.81111730  0.13200397  0.50367398     0.02300
H1241       H  0.78957194  0.13072898  0.48190072     0.02800
H1242       H  0.82791998  0.14720559  0.48256347     0.06300
H1243       H  0.72563069  0.05457825  0.46603467     0.05300
H1244       H  0.76254001  0.03562886  0.46810545    -0.00500
H1245       H  0.76066251  0.07650913  0.46237842     0.01000
H1246       H  0.77002632  0.07496130  0.55797683     0.04600
H1247       H  0.73404629  0.09601487  0.55675146     0.06600
H1248       H  0.76928278  0.11486071  0.55026473     0.07400
C1249       C  0.12664749  0.96208570  0.19429956    -0.22200
C1250       C  0.11902982  0.96390319  0.21332526     0.09800
C1251       C  0.10788963  0.93743486  0.22276267     0.10200
C1252       C  0.10577076  0.90921118  0.21307378    -0.17100
C1253       C  0.11493224  0.90677541  0.19422386    -0.27500
C1254       C  0.12482194  0.93381913  0.18456857     0.18500
C1255       C  0.12500587  0.99317763  0.22347968     0.12500
C1256       C  0.09914076  0.93881811  0.24319259    -0.11900
H1257       H  0.09797704  0.88868756  0.22049301     0.12800
C1258       C  0.13316159  0.93335796  0.16404757    -0.22700
H1259       H  0.13489089  0.98275685  0.18720318     0.08400
C1260       C  0.15482481  0.00020250  0.23034806     0.04700
C1261       C  0.15933649  0.02736648  0.24079336    -0.19900
C1262       C  0.13465444  0.04767316  0.24472257    -0.12200
C1263       C  0.10467187  0.04062823  0.23750526     0.13500
C1264       C  0.10038742  0.01346938  0.22690096    -0.22700
C1265       C  0.18173148  0.97860109  0.22701725    -0.05700
H1266       H  0.18230469  0.03244727  0.24617213     0.15000
C1267       C  0.07677118  0.06075507  0.24126008    -0.15900
H1268       H  0.07757467  0.00761571  0.22153979     0.09300
H1269       H  0.15431655  0.91923960  0.16177351     0.07200
H1270       H  0.13810408  0.95703750  0.15865635     0.08400
H1271       H  0.11358374  0.92363828  0.15577559     0.07400
H1272       H  0.08001824  0.95570458  0.24522213     0.02300
H1273       H  0.11948736  0.94619933  0.25165358     0.02800
H1274       H  0.09119992  0.91590289  0.24848114     0.06300
H1275       H  0.20340508  0.98735526  0.23359947     0.05300
H1276       H  0.18593025  0.97614101  0.21173996    -0.00500
H1277       H  0.17648757  0.95543280  0.23305479     0.01000
H1278       H  0.05536480  0.05104162  0.23484037     0.04600
H1279       H  0.08044536  0.08418670  0.23519339     0.06600
H1280       H  0.07269366  0.06255416  0.25658509     0.07400
C1281       C  0.06413881  0.05886271  0.34057617    -0.22200
C1282       C  0.07959500  0.06435847  0.35752377     0.09800
C1283       C  0.11154161  0.07120780  0.35750268     0.10200
C1284       C  0.12687571  0.07487749  0.34030838    -0.17100
C1285       C  0.11071892  0.07222280  0.32325265    -0.27500
C1286       C  0.07938981  0.06235898  0.32339212     0.18500
C1287       C  0.06094619  0.06571399  0.37482762     0.12500
C1288       C  0.12893274  0.07618254  0.37557002    -0.11900
H1289       H  0.15091871  0.08230005  0.34024885     0.12800
C1290       C  0.06130403  0.05562220  0.30575916    -0.22700
H1291       H  0.03968941  0.05287588  0.34075539     0.08400
C1292       C  0.04489313  0.09304696  0.37971457     0.04700
C1293       C  0.02409674  0.09241086  0.39477768    -0.19900
C1294       C  0.01901411  0.06504788  0.40498779    -0.12200
C1295       C  0.03720705  0.03846033  0.40107973     0.13500
C1296       C  0.05759352  0.03898426  0.38576762    -0.22700
C1297       C  0.04903539  0.12258482  0.36866396    -0.05700
H1298       H  0.01050680  0.11291202  0.39792624     0.15000
C1299       C  0.03622901  0.00948712  0.41289629    -0.15900
H1300       H  0.07067346  0.01833440  0.38219927     0.09300
H1301       H  0.04223940  0.07272733  0.30424753     0.07200
H1302       H  0.05112938  0.03196413  0.30663689     0.08400
H1303       H  0.07592256  0.05612622  0.29299417     0.07400
H1304       H  0.12765226  0.05483115  0.38423499     0.02300
H1305       H  0.11854516  0.09579349  0.38346911     0.02800
H1306       H  0.15377311  0.08163769  0.37304412     0.06300
H1307       H  0.03483899  0.14183255  0.37444550     0.05300
H1308       H  0.04193044  0.11879673  0.35388030    -0.00500
H1309       H  0.07374555  0.12987648  0.36904182     0.01000
H1310       H  0.02706359  0.98984614  0.40444839     0.04600
H1311       H  0.02194698  0.01209045  0.42570175     0.06600
H1312       H  0.06008118  0.00373601  0.41762626     0.07400
C1313       C  0.20921230  0.32714797  0.48956478    -0.22200
C1314       C  0.22620436  0.35478204  0.48837042     0.09800
C1315       C  0.21595246  0.37884485  0.47660675     0.10200
C1316       C  0.18903704  0.37453161  0.46596320    -0.17100
C1317       C  0.17205533  0.34659399  0.46666805    -0.27500
C1318       C  0.18218609  0.32263379  0.47889325     0.18500
C1319       C  0.25532286  0.35779169  0.49909228     0.12500
C1320       C  0.23345054  0.40909882  0.47529515    -0.11900
H1321       H  0.18144179  0.39317331  0.45688418     0.12800
C1322       C  0.16535541  0.29206076  0.48063144    -0.22700
H1323       H  0.21746428  0.30887869  0.49872631     0.08400
C1324       C  0.25531494  0.36584034  0.51823855     0.04700
C1325       C  0.28370902  0.36948066  0.52758170    -0.19900
C1326       C  0.31197096  0.36494075  0.51819737    -0.12200
C1327       C  0.31186985  0.35712997  0.49892813     0.13500
C1328       C  0.28344609  0.35352817  0.48963784    -0.22700
C1329       C  0.22539031  0.37089989  0.52868325    -0.05700
H1330       H  0.28386167  0.37557290  0.54233031     0.15000
C1331       C  0.34151118  0.35384447  0.48789969    -0.15900
H1332       H  0.28306579  0.34770278  0.47484933     0.09300
H1333       H  0.17705214  0.27619766  0.49064449     0.07200
H1334       H  0.16460555  0.28021124  0.46680918     0.08400
H1335       H  0.14144957  0.29598583  0.48588581     0.07400
H1336       H  0.25725192  0.40487725  0.46996303     0.02300
H1337       H  0.23486520  0.42005068  0.48936660     0.02800
H1338       H  0.22192837  0.42569233  0.46565204     0.06300
H1339       H  0.22956119  0.37745322  0.54353511     0.05300
H1340       H  0.21136269  0.34926411  0.52850703    -0.00500
H1341       H  0.21200437  0.38982378  0.52192569     0.01000
H1342       H  0.35511579  0.33386652  0.49319291     0.04600
H1343       H  0.35548301  0.37544511  0.48914345     0.06600
H1344       H  0.33690537  0.34969156  0.47278185     0.07400
C1345       C  0.15194420  0.27905391  0.35970410    -0.22200
C1346       C  0.16386924  0.24997312  0.36449913     0.09800
C1347       C  0.17052243  0.24299225  0.38334720     0.10200
C1348       C  0.16224477  0.26435516  0.39728667    -0.17100
C1349       C  0.14767925  0.29247170  0.39266632    -0.27500
C1350       C  0.14361263  0.30049397  0.37356398     0.18500
C1351       C  0.16380591  0.22568583  0.34997997     0.12500
C1352       C  0.18521972  0.21257640  0.38871396    -0.11900
H1353       H  0.16572491  0.25842251  0.41189903     0.12800
C1354       C  0.12826168  0.33033812  0.36762929    -0.22700
H1355       H  0.14704519  0.28402994  0.34510529     0.08400
C1356       C  0.13743935  0.20661632  0.34758601     0.04700
C1357       C  0.13676509  0.18544373  0.33276506    -0.19900
C1358       C  0.16173834  0.18295617  0.32030218    -0.12200
C1359       C  0.18823002  0.20191577  0.32271059     0.13500
C1360       C  0.18891004  0.22327290  0.33760079    -0.22700
C1361       C  0.10969706  0.20908183  0.36040291    -0.05700
H1362       H  0.11657985  0.17069026  0.33086946     0.15000
C1363       C  0.21504212  0.20061925  0.30920169    -0.15900
H1364       H  0.20875919  0.23846160  0.33943914     0.09300
H1365       H  0.12624900  0.33210135  0.35214518     0.07200
H1366       H  0.14220726  0.35045045  0.37254154     0.08400
H1367       H  0.10448238  0.33163384  0.37355109     0.07400
H1368       H  0.20809933  0.21041705  0.38170050     0.02300
H1369       H  0.17022675  0.19290512  0.38432154     0.02800
H1370       H  0.18890143  0.21088030  0.40408748     0.06300
H1371       H  0.09102569  0.19255462  0.35637610     0.05300
H1372       H  0.10001648  0.23291749  0.35978255    -0.00500
H1373       H  0.11657695  0.20384967  0.37504144     0.01000
H1374       H  0.23315476  0.21805426  0.31272306     0.04600
H1375       H  0.20670729  0.20539517  0.29475788     0.06600
H1376       H  0.22594496  0.17732635  0.30963536     0.07400
C1377       C  0.82901855  0.41414431  0.25928963    -0.22200
C1378       C  0.83999477  0.41508750  0.24084028     0.09800
C1379       C  0.85414094  0.38858982  0.23303130     0.10200
C1380       C  0.85674768  0.36150512  0.24384682    -0.17100
C1381       C  0.84526961  0.36014523  0.26228470    -0.27500
C1382       C  0.83137978  0.38704875  0.27014460     0.18500
C1383       C  0.83624543  0.44408916  0.22990372     0.12500
C1384       C  0.86619394  0.38886776  0.21321939    -0.11900
H1385       H  0.86735642  0.34108995  0.23771828     0.12800
C1386       C  0.81964547  0.38785356  0.29004544    -0.22700
H1387       H  0.81837793  0.43475437  0.26516532     0.08400
C1388       C  0.80874869  0.45034974  0.21993941     0.04700
C1389       C  0.80642147  0.47786166  0.20951176    -0.19900
C1390       C  0.83083882  0.49959929  0.20893234    -0.12200
C1391       C  0.85832323  0.49334442  0.21926145     0.13500
C1392       C  0.86061691  0.46559843  0.22953609    -0.22700
C1393       C  0.78194711  0.42785761  0.22024288    -0.05700
H1394       H  0.78526906  0.48241472  0.20178733     0.15000
C1395       C  0.88568380  0.51517813  0.21927557    -0.15900
H1396       H  0.88161146  0.46051304  0.23730754     0.09300
H1397       H  0.79974086  0.37171416  0.29166134     0.07200
H1398       H  0.81144913  0.41135742  0.29408441     0.08400
H1399       H  0.83855542  0.38127689  0.29983124     0.07400
H1400       H  0.88441511  0.40695086  0.21176566     0.02300
H1401       H  0.84695347  0.39399036  0.20335792     0.02800
H1402       H  0.87643785  0.36617176  0.20921874     0.06300
H1403       H  0.76218547  0.43619136  0.21163209     0.05300
H1404       H  0.77364279  0.42478775  0.23485202    -0.00500
H1405       H  0.78945666  0.40504960  0.21460646     0.01000
H1406       H  0.87905367  0.53763446  0.22575380     0.04600
H1407       H  0.89379660  0.51903905  0.20471787     0.06600
H1408       H  0.90548483  0.50576779  0.22743957     0.07400
C1409       C  0.92498011  0.30862173  0.36296369    -0.22200
C1410       C  0.95062402  0.32689824  0.35815165     0.09800
C1411       C  0.95300282  0.33943748  0.33998106     0.10200
C1412       C  0.92987708  0.33270518  0.32678848    -0.17100
C1413       C  0.90481575  0.31322523  0.33125348    -0.27500
C1414       C  0.90223295  0.30103634  0.34966903     0.18500
C1415       C  0.97662775  0.32914202  0.37151717     0.12500
C1416       C  0.98059212  0.35878928  0.33430141    -0.11900
H1417       H  0.93201782  0.34165351  0.31264731     0.12800
C1418       C  0.87762037  0.27807477  0.35560408    -0.22700
H1419       H  0.92371166  0.29865650  0.37689924     0.08400
C1420       C  0.97931687  0.35388892  0.38433668     0.04700
C1421       C  0.00513938  0.35508117  0.39628210    -0.19900
C1422       C  0.02786102  0.33179168  0.39581205    -0.12200
C1423       C  0.02508938  0.30697008  0.38292535     0.13500
C1424       C  0.99930766  0.30591336  0.37101241    -0.22700
C1425       C  0.95483915  0.37870078  0.38551197    -0.05700
H1426       H  0.00741444  0.37400557  0.40622822     0.15000
C1427       C  0.04927317  0.28193256  0.38077718    -0.15900
H1428       H  0.99709539  0.28706647  0.36100047     0.09300
H1429       H  0.86364033  0.28819888  0.36715096     0.07200
H1430       H  0.88890284  0.25655523  0.36076946     0.08400
H1431       H  0.86167356  0.27104661  0.34425592     0.07400
H1432       H  0.00217615  0.34500576  0.33581475     0.02300
H1433       H  0.98218967  0.37972347  0.34332268     0.02800
H1434       H  0.97888537  0.36655474  0.31949848     0.06300
H1435       H  0.96047888  0.39628189  0.39640115     0.05300
H1436       H  0.93216105  0.36800242  0.38910801    -0.00500
H1437       H  0.95275413  0.39080071  0.37185475     0.01000
H1438       H  0.03878865  0.25898903  0.38399612     0.04600
H1439       H  0.06971783  0.28525575  0.38995455     0.06600
H1440       H  0.05782618  0.28166993  0.36609552     0.07400
C1441       C  0.84081330  0.15977608  0.34043037    -0.22200
C1442       C  0.87082033  0.15489911  0.34733691     0.09800
C1443       C  0.89605199  0.17126225  0.33950737     0.10200
C1444       C  0.89051236  0.19325625  0.32549632    -0.17100
C1445       C  0.86031057  0.19958396  0.31925676    -0.27500
C1446       C  0.83523074  0.18167033  0.32625830     0.18500
C1447       C  0.87559962  0.13447365  0.36371054     0.12500
C1448       C  0.92868612  0.16663232  0.34658717    -0.11900
H1449       H  0.90975354  0.20688156  0.32017367     0.12800
C1450       C  0.80254138  0.18452219  0.31897027    -0.22700
H1451       H  0.82161323  0.14673159  0.34631226     0.08400
C1452       C  0.87141940  0.14587944  0.38204755     0.04700
C1453       C  0.88248990  0.12855316  0.39722839    -0.19900
C1454       C  0.89829941  0.10040831  0.39450527    -0.12200
C1455       C  0.90138615  0.08840450  0.37602228     0.13500
C1456       C  0.88920738  0.10536839  0.36095056    -0.22700
C1457       C  0.85670344  0.17706805  0.38551481    -0.05700
H1458       H  0.87995991  0.13772586  0.41130455     0.15000
C1459       C  0.91943771  0.05952304  0.37109298    -0.15900
H1460       H  0.89257205  0.09699874  0.34675063     0.09300
H1461       H  0.78721568  0.19350264  0.33023325     0.07200
H1462       H  0.79402541  0.16128138  0.31456122     0.08400
H1463       H  0.80068546  0.19982107  0.30656392     0.07400
H1464       H  0.93592335  0.14221791  0.34428465     0.02300
H1465       H  0.92981429  0.17205640  0.36179243     0.02800
H1466       H  0.94552882  0.18189406  0.33923805     0.06300
H1467       H  0.85563593  0.18270058  0.40069693     0.05300
H1468       H  0.83266961  0.17709812  0.37993018    -0.00500
H1469       H  0.87036765  0.19552616  0.37843891     0.01000
H1470       H  0.90351284  0.04206005  0.36484232     0.04600
H1471       H  0.93167324  0.04870890  0.38296511     0.06600
H1472       H  0.93753531  0.06544571  0.36060197     0.07400
C1473       C  0.16630776  0.09794842  0.98529835    -0.22200
C1474       C  0.17255254  0.07314902  0.99740720     0.09800
C1475       C  0.15047046  0.04923563  0.99959188     0.10200
C1476       C  0.12291917  0.05018599  0.98912305    -0.17100
C1477       C  0.11686833  0.07466460  0.97669069    -0.27500
C1478       C  0.13882634  0.09895413  0.97476907     0.18500
C1479       C  0.20308130  0.07187441  0.00688927     0.12500
C1480       C  0.15633558  0.02243059  0.01264495    -0.11900
H1481       H  0.10613661  0.03154062  0.99046594     0.12800
C1482       C  0.13500755  0.12536781  0.96110750    -0.22700
H1483       H  0.18347685  0.11616905  0.98361894     0.08400
C1484       C  0.22974254  0.06128634  0.99737599     0.04700
C1485       C  0.25827724  0.06063613  0.00681799    -0.19900
C1486       C  0.26064276  0.06998594  0.02559951    -0.12200
C1487       C  0.23393020  0.08093837  0.03508060     0.13500
C1488       C  0.20541764  0.08152273  0.02559107    -0.22700
C1489       C  0.22793794  0.05020156  0.97736986    -0.05700
H1490       H  0.27876569  0.05227345  0.99961105     0.15000
C1491       C  0.23470165  0.09331383  0.05486765    -0.15900
H1492       H  0.18489478  0.08991335  0.03275645     0.09300
H1493       H  0.15482468  0.12549840  0.95116611     0.07200
H1494       H  0.13478191  0.14771958  0.96887013     0.08400
H1495       H  0.11350109  0.12385630  0.95268631     0.07400
H1496       H  0.15921307  0.03115305  0.02719132     0.02300
H1497       H  0.17773095  0.01003007  0.00833210     0.02800
H1498       H  0.13682387  0.00555229  0.01254653     0.06300
H1499       H  0.25082971  0.04216340  0.97215244     0.05300
H1500       H  0.21998478  0.06937272  0.96818293    -0.00500
H1501       H  0.21134429  0.03052586  0.97632517     0.01000
H1502       H  0.22563380  0.11742341  0.05503164     0.04600
H1503       H  0.25828171  0.09411154  0.06098313     0.06600
H1504       H  0.21979399  0.07865542  0.06396379     0.07400
C1505       C  0.61218325  0.92642059  0.22867279    -0.22200
C1506       C  0.64030587  0.93918191  0.22262739     0.09800
C1507       C  0.66838103  0.92400385  0.22677363     0.10200
C1508       C  0.66770167  0.89616188  0.23693920    -0.17100
C1509       C  0.63954966  0.88311626  0.24309682    -0.27500
C1510       C  0.61134285  0.89862681  0.23891562     0.18500
C1511       C  0.63980469  0.96877564  0.21216653     0.12500
C1512       C  0.69900668  0.93725719  0.22046647    -0.11900
H1513       H  0.68935131  0.88457177  0.24013590     0.12800
C1514       C  0.58034054  0.88691283  0.24570794    -0.22700
H1515       H  0.59079899  0.93851481  0.22548024     0.08400
C1516       C  0.63471272  0.96946778  0.19265633     0.04700
C1517       C  0.63460318  0.99811120  0.18333048    -0.19900
C1518       C  0.63912817  0.02602152  0.19314212    -0.12200
C1519       C  0.64474867  0.02521505  0.21270437     0.13500
C1520       C  0.64469011  0.99653552  0.22197787    -0.22700
C1521       C  0.62933071  0.93998655  0.18174958    -0.05700
H1522       H  0.63035417  0.99879305  0.16835549     0.15000
C1523       C  0.65211192  0.05375953  0.22415791    -0.15900
H1524       H  0.64892382  0.99574742  0.23695685     0.09300
H1525       H  0.57509289  0.86406273  0.23923506     0.07200
H1526       H  0.56118909  0.90291676  0.24189018     0.08400
H1527       H  0.58058484  0.88477568  0.26122028     0.07400
H1528       H  0.70246226  0.96060765  0.22673803     0.02300
H1529       H  0.69929686  0.93926231  0.20495484     0.02800
H1530       H  0.71876690  0.92237153  0.22476273     0.06300
H1531       H  0.62587667  0.94463868  0.16658373     0.05300
H1532       H  0.60831673  0.92799945  0.18711001    -0.00500
H1533       H  0.64965212  0.92441017  0.18329052     0.01000
H1534       H  0.63376836  0.05728579  0.23486402     0.04600
H1535       H  0.65418628  0.07514180  0.21567553     0.06600
H1536       H  0.67468111  0.05051474  0.23139918     0.07400
C1537       C  0.75531132  0.22721417  0.23192058    -0.22200
C1538       C  0.76577816  0.19758577  0.22691840     0.09800
C1539       C  0.79471872  0.18691261  0.23331995     0.10200
C1540       C  0.81227582  0.20588469  0.24524034    -0.17100
C1541       C  0.80122531  0.23502045  0.25101797    -0.27500
C1542       C  0.77270236  0.24615673  0.24397526     0.18500
C1543       C  0.74516980  0.17762327  0.21570468     0.12500
C1544       C  0.80667558  0.15534764  0.22784220    -0.11900
H1545       H  0.83425634  0.19749234  0.25058384     0.12800
C1546       C  0.76083413  0.27808283  0.24876788    -0.22700
H1547       H  0.73311671  0.23520018  0.22667137     0.08400
C1548       C  0.72215645  0.15939850  0.22437770     0.04700
C1549       C  0.70139877  0.14264265  0.21319398    -0.19900
C1550       C  0.70287525  0.14408357  0.19356306    -0.12200
C1551       C  0.72620581  0.16234508  0.18486302     0.13500
C1552       C  0.74743271  0.17846050  0.19615827    -0.22700
C1553       C  0.71913920  0.15818225  0.24541129    -0.05700
H1554       H  0.68340533  0.12887754  0.21981697     0.15000
C1555       C  0.72845645  0.16736613  0.16397066    -0.15900
H1556       H  0.76506231  0.19289344  0.18968646     0.09300
H1557       H  0.75563434  0.27965165  0.26396188     0.07200
H1558       H  0.73915085  0.28356637  0.24104789     0.08400
H1559       H  0.77849922  0.29579807  0.24497839     0.07400
H1560       H  0.80898414  0.15395709  0.21236617     0.02300
H1561       H  0.79030143  0.13710945  0.23265827     0.02800
H1562       H  0.82973539  0.15057819  0.23414688     0.06300
H1563       H  0.69986313  0.14271748  0.24986503     0.05300
H1564       H  0.71446416  0.18178756  0.25097996    -0.00500
H1565       H  0.74095334  0.14929049  0.25166426     0.01000
H1566       H  0.72758473  0.19263721  0.16094997     0.04600
H1567       H  0.70949139  0.15653708  0.15585313     0.06600
H1568       H  0.75087106  0.15806823  0.15878412     0.07400
C1569       C  0.46249293  0.03695594  0.09917748    -0.22200
C1570       C  0.48061968  0.06389642  0.09892303     0.09800
C1571       C  0.47184613  0.08920284  0.08759725     0.10200
C1572       C  0.44475283  0.08704094  0.07682482    -0.17100
C1573       C  0.42563524  0.06066663  0.07771622    -0.27500
C1574       C  0.43488035  0.03506912  0.08886001     0.18500
C1575       C  0.50814346  0.06566504  0.11116411     0.12500
C1576       C  0.49048947  0.11883930  0.08738278    -0.11900
H1577       H  0.43793184  0.10650208  0.06817448     0.12800
C1578       C  0.41632926  0.00543259  0.08965036    -0.22700
H1579       H  0.46972661  0.01758799  0.10781513     0.08400
C1580       C  0.50520932  0.07172670  0.13047189     0.04700
C1581       C  0.53199429  0.07619302  0.14122607    -0.19900
C1582       C  0.56174152  0.07508434  0.13311609    -0.12200
C1583       C  0.56453402  0.06749427  0.11379728     0.13500
C1584       C  0.53757856  0.06278218  0.10313316    -0.22700
C1585       C  0.47380502  0.07457104  0.13959384    -0.05700
H1586       H  0.52951918  0.08153199  0.15599577     0.15000
C1587       C  0.59543893  0.06530427  0.10400587    -0.15900
H1588       H  0.53935606  0.05777540  0.08827585     0.09300
H1589       H  0.39340684  0.00967940  0.09620298     0.07200
H1590       H  0.42817858  0.98732434  0.09808181     0.08400
H1591       H  0.41320309  0.99621064  0.07528002     0.07400
H1592       H  0.51428973  0.11414740  0.08220302     0.02300
H1593       H  0.49181995  0.12860240  0.10177598     0.02800
H1594       H  0.47988460  0.13660932  0.07812572     0.06300
H1595       H  0.47571287  0.08006935  0.15476579     0.05300
H1596       H  0.46090784  0.05236863  0.13818280    -0.00500
H1597       H  0.46040088  0.09341353  0.13276557     0.01000
H1598       H  0.60975099  0.04693777  0.11062188     0.04600
H1599       H  0.60765909  0.08798590  0.10472901     0.06600
H1600       H  0.59281675  0.05921615  0.08895239     0.07400
C1601       C  0.35405962  0.46001503  0.22882442    -0.22200
C1602       C  0.32694794  0.47780875  0.22973735     0.09800
C1603       C  0.30050698  0.46840690  0.21959292     0.10200
C1604       C  0.30203852  0.44185916  0.20825530    -0.17100
C1605       C  0.32935097  0.42418193  0.20687146    -0.27500
C1606       C  0.35563629  0.43317971  0.21761619     0.18500
C1607       C  0.32705163  0.50702723  0.24071335     0.12500
C1608       C  0.27062596  0.48638697  0.22078421    -0.11900
H1609       H  0.28169000  0.43496836  0.20034101     0.12800
C1610       C  0.38570439  0.41541929  0.21701387    -0.22700
H1611       H  0.37422456  0.46749689  0.23672599     0.08400
C1612       C  0.32344354  0.50717645  0.26035139     0.04700
C1613       C  0.32313169  0.53565906  0.26996592    -0.19900
C1614       C  0.32641370  0.56395661  0.26036242    -0.12200
C1615       C  0.32909719  0.56369118  0.24056062     0.13500
C1616       C  0.32991634  0.53518442  0.23107413    -0.22700
C1617       C  0.31993650  0.47731119  0.27109802    -0.05700
H1618       H  0.32115382  0.53578950  0.28511380     0.15000
C1619       C  0.32990325  0.59278849  0.22882424    -0.15900
H1620       H  0.33217617  0.53490380  0.21593322     0.09300
H1621       H  0.38208813  0.39157564  0.22247646     0.07200
H1622       H  0.40391492  0.42656171  0.22576676     0.08400
H1623       H  0.39446539  0.41436985  0.20240950     0.07400
H1624       H  0.27421689  0.51037848  0.21556171     0.02300
H1625       H  0.26266907  0.48730841  0.23557487     0.02800
H1626       H  0.25197094  0.47550477  0.21226171     0.06300
H1627       H  0.31701923  0.48156098  0.28635347     0.05300
H1628       H  0.34085930  0.46270238  0.26911133    -0.00500
H1629       H  0.29923662  0.46447334  0.26597639     0.01000
H1630       H  0.35275120  0.59475252  0.22174510     0.04600
H1631       H  0.32555704  0.61423752  0.23694909     0.06600
H1632       H  0.31146249  0.59150765  0.21797296     0.07400
C1633       C  0.23444078  0.25502563  0.19629196    -0.22200
C1634       C  0.23591400  0.25182503  0.21576540     0.09800
C1635       C  0.25347653  0.27303662  0.22648767     0.10200
C1636       C  0.26981534  0.29679876  0.21735895    -0.17100
C1637       C  0.26885472  0.29981403  0.19778634    -0.27500
C1638       C  0.25093633  0.27853596  0.18706900     0.18500
C1639       C  0.21963515  0.22547496  0.22463531     0.12500
C1640       C  0.25532727  0.27022083  0.24750312    -0.11900
H1641       H  0.28401409  0.31268608  0.22548212     0.12800
C1642       C  0.24996695  0.27835618  0.16592214    -0.22700
H1643       H  0.22104046  0.23843106  0.18817761     0.08400
C1644       C  0.18846743  0.22787192  0.23022026     0.04700
C1645       C  0.17460673  0.20303755  0.23972885    -0.19900
C1646       C  0.19125076  0.17579648  0.24392058    -0.12200
C1647       C  0.22226054  0.17297745  0.23743392     0.13500
C1648       C  0.23597338  0.19793624  0.22784016    -0.22700
C1649       C  0.17008332  0.25691153  0.22645903    -0.05700
H1650       H  0.15087653  0.20549710  0.24448731     0.15000
C1651       C  0.24116798  0.14399904  0.24041546    -0.15900
H1652       H  0.25983517  0.19630522  0.22315646     0.09300
H1653       H  0.22566458  0.28145674  0.16113417     0.07200
H1654       H  0.25863977  0.25570600  0.16064828     0.08400
H1655       H  0.26419998  0.29665172  0.15936143     0.07400
H1656       H  0.26545185  0.24742550  0.25134538     0.02300
H1657       H  0.23174699  0.27208623  0.25364137     0.02800
H1658       H  0.27003261  0.28874120  0.25374802     0.06300
H1659       H  0.14598603  0.25504841  0.23184645     0.05300
H1660       H  0.16892735  0.26115277  0.21112928    -0.00500
H1661       H  0.18137362  0.27707609  0.23338176     0.01000
H1662       H  0.26396991  0.14534643  0.23321209     0.04600
H1663       H  0.22853817  0.12357378  0.23471043     0.06600
H1664       H  0.24588183  0.14066618  0.25556582     0.07400
C1665       C  0.35026371  0.19305612  0.09030288    -0.22200
C1666       C  0.32317905  0.19818923  0.10056906     0.09800
C1667       C  0.29861410  0.17657879  0.09973558     0.10200
C1668       C  0.30217282  0.14950814  0.08895774    -0.17100
C1669       C  0.32953418  0.14409785  0.07880470    -0.27500
C1670       C  0.35384581  0.16630221  0.07941417     0.18500
C1671       C  0.32227576  0.22566678  0.11288639     0.12500
C1672       C  0.26886853  0.18211595  0.11025230    -0.11900
H1673       H  0.28356212  0.13256751  0.08841233     0.12800
C1674       C  0.38430585  0.16132906  0.06948146    -0.22700
H1675       H  0.36899535  0.20984283  0.09119502     0.08400
C1676       C  0.33441928  0.22439486  0.13118892     0.04700
C1677       C  0.33624937  0.25166993  0.14180596    -0.19900
C1678       C  0.32628102  0.28029500  0.13455267    -0.12200
C1679       C  0.31371548  0.28137264  0.11616075     0.13500
C1680       C  0.31204079  0.25394444  0.10554864    -0.22700
C1681       C  0.34584297  0.19428617  0.13940135    -0.05700
H1682       H  0.34545137  0.25053063  0.15592659     0.15000
C1683       C  0.30287287  0.31121621  0.10732600    -0.15900
H1684       H  0.30316744  0.25455826  0.09133304     0.09300
H1685       H  0.40124628  0.18010665  0.07260068     0.07200
H1686       H  0.38071148  0.16097866  0.05408675     0.08400
H1687       H  0.39462338  0.13907795  0.07412695     0.07400
H1688       H  0.25810015  0.20404768  0.10535603     0.02300
H1689       H  0.27365096  0.18393908  0.12549914     0.02800
H1690       H  0.25196785  0.16296237  0.10803233     0.06300
H1691       H  0.35456968  0.19738134  0.15393465     0.05300
H1692       H  0.36508466  0.18497736  0.13073581    -0.00500
H1693       H  0.32666176  0.17707574  0.13974831     0.01000
H1694       H  0.29556810  0.30775365  0.09253576     0.04600
H1695       H  0.32197602  0.32855289  0.10743370     0.06600
H1696       H  0.28255285  0.32041561  0.11507215     0.07400
C1697       C  0.73254054  0.37967171  0.01294792    -0.22200
C1698       C  0.73020480  0.37436821  0.99363003     0.09800
C1699       C  0.70081280  0.37369712  0.98498799     0.10200
C1700       C  0.67424124  0.37818566  0.99594055    -0.17100
C1701       C  0.67635275  0.38364724  0.01532010    -0.27500
C1702       C  0.70597403  0.38443063  0.02395471     0.18500
C1703       C  0.75885895  0.36995365  0.98259263     0.12500
C1704       C  0.69753292  0.36865728  0.96417419    -0.11900
H1705       H  0.65163903  0.37768352  0.98927561     0.12800
C1706       C  0.70983360  0.38919507  0.04475851    -0.22700
H1707       H  0.75530947  0.38004344  0.01940595     0.08400
C1708       C  0.77727336  0.39545322  0.97713605     0.04700
C1709       C  0.80336213  0.39035375  0.96585929    -0.19900
C1710       C  0.81155870  0.36033011  0.96003966    -0.12200
C1711       C  0.79315113  0.33472354  0.96562222     0.13500
C1712       C  0.76701472  0.33990357  0.97691813    -0.22700
C1713       C  0.76902399  0.42806489  0.98289722    -0.05700
H1714       H  0.81745341  0.40994485  0.96153003     0.15000
C1715       C  0.80003492  0.30219076  0.95904874    -0.15900
H1716       H  0.75251928  0.32052880  0.98111082     0.09300
H1717       H  0.70152585  0.41262689  0.04879231     0.07200
H1718       H  0.73450859  0.38745402  0.04911611     0.08400
H1719       H  0.69653476  0.37121136  0.05248846     0.07400
H1720       H  0.70700735  0.34561022  0.96026563     0.02300
H1721       H  0.71039793  0.38703095  0.95650555     0.02800
H1722       H  0.67289396  0.36944211  0.95964590     0.06300
H1723       H  0.78561464  0.44534512  0.97713102     0.05300
H1724       H  0.76941326  0.43006155  0.99840603    -0.00500
H1725       H  0.74547905  0.43389905  0.97768450     0.01000
H1726       H  0.82277464  0.29449859  0.96462659     0.04600
H1727       H  0.80045682  0.30146651  0.94348740     0.06600
H1728       H  0.78221274  0.28539625  0.96393758     0.07400
C1729       C  0.64175857  0.29472735  0.10433480    -0.22200
C1730       C  0.62390102  0.26801078  0.10115246     0.09800
C1731       C  0.60283303  0.26720206  0.08607449     0.10200
C1732       C  0.59982068  0.29329492  0.07459303    -0.17100
C1733       C  0.61730765  0.32044708  0.07773065    -0.27500
C1734       C  0.63879016  0.32105344  0.09281713     0.18500
C1735       C  0.62723790  0.24094842  0.11373474     0.12500
C1736       C  0.58367032  0.23865721  0.08196185    -0.11900
H1737       H  0.58321578  0.29249243  0.06319432     0.12800
C1738       C  0.65895843  0.34889854  0.09680219    -0.22700
H1739       H  0.65795467  0.29496968  0.11596089     0.08400
C1740       C  0.65218270  0.22010822  0.11193171     0.04700
C1741       C  0.65264910  0.19315989  0.12293938    -0.19900
C1742       C  0.62857693  0.18635105  0.13562986    -0.12200
C1743       C  0.60369992  0.20770784  0.13753706     0.13500
C1744       C  0.60360744  0.23481711  0.12665861    -0.22700
C1745       C  0.67783538  0.22589761  0.09802799    -0.05700
H1746       H  0.67186177  0.17716700  0.12145139     0.15000
C1747       C  0.57652420  0.20188334  0.15037552    -0.15900
H1748       H  0.58448509  0.25101598  0.12780719     0.09300
H1749       H  0.67528796  0.34452495  0.10854911     0.07200
H1750       H  0.64435191  0.36901462  0.10081112     0.08400
H1751       H  0.67293191  0.35469172  0.08421420     0.07400
H1752       H  0.56809386  0.23354454  0.09394652     0.02300
H1753       H  0.59918595  0.21851578  0.07951805     0.02800
H1754       H  0.56897418  0.24169767  0.06930916     0.06300
H1755       H  0.69530202  0.20698453  0.09815841     0.05300
H1756       H  0.68989323  0.24796772  0.10147177    -0.00500
H1757       H  0.66801622  0.22743706  0.08366881     0.01000
H1758       H  0.55873984  0.22041064  0.14925231     0.04600
H1759       H  0.58444994  0.20135611  0.16517103     0.06600
H1760       H  0.56517317  0.17954508  0.14664797     0.07400
C1761       C  0.44618112  0.40610659  0.12886904    -0.22200
C1762       C  0.43866883  0.40606825  0.10979649     0.09800
C1763       C  0.40749991  0.40278066  0.10417909     0.10200
C1764       C  0.38468754  0.39716514  0.11780864    -0.17100
C1765       C  0.39259770  0.39423835  0.13685043    -0.27500
C1766       C  0.42356309  0.40025622  0.14252455     0.18500
C1767       C  0.46438635  0.40505938  0.09613824     0.12500
C1768       C  0.39859546  0.40424371  0.08378858    -0.11900
H1769       H  0.36096258  0.39301415  0.11341509     0.12800
C1770       C  0.43311608  0.40047664  0.16285944    -0.22700
H1771       H  0.47021131  0.40911454  0.13300525     0.08400
C1772       C  0.48100517  0.43187118  0.09090220     0.04700
C1773       C  0.50735808  0.42879825  0.07949799    -0.19900
C1774       C  0.51724656  0.39950452  0.07324436    -0.12200
C1775       C  0.50029938  0.37268580  0.07837800     0.13500
C1776       C  0.47399257  0.37587427  0.08972886    -0.22700
C1777       C  0.47099545  0.46353065  0.09745190    -0.05700
H1778       H  0.52042655  0.44929897  0.07553502     0.15000
C1779       C  0.51075224  0.34055510  0.07284694    -0.15900
H1780       H  0.46127952  0.35538787  0.09412426     0.09300
H1781       H  0.45751401  0.40829266  0.16463737     0.07200
H1782       H  0.43143722  0.37684631  0.16891031     0.08400
H1783       H  0.41807993  0.41670198  0.17080580     0.07400
H1784       H  0.41037836  0.38544648  0.07589278     0.02300
H1785       H  0.40562113  0.42703981  0.07789452     0.02800
H1786       H  0.37318132  0.40151233  0.08180028     0.06300
H1787       H  0.48636918  0.48208860  0.09190439     0.05300
H1788       H  0.47164746  0.46461872  0.11299167    -0.00500
H1789       H  0.44699383  0.46818899  0.09257727     0.01000
H1790       H  0.49571880  0.32227947  0.07903649     0.04600
H1791       H  0.53483237  0.33656348  0.07782537     0.06600
H1792       H  0.50980809  0.33788513  0.05739051     0.07400
C1793       C  0.64604678  0.84582373  0.99757774    -0.22200
C1794       C  0.66711137  0.87038166  0.99580990     0.09800
C1795       C  0.66050330  0.89521299  0.98368987     0.10200
C1796       C  0.63345416  0.89424590  0.97285931    -0.17100
C1797       C  0.61279693  0.86888493  0.97374832    -0.27500
C1798       C  0.61883443  0.84470154  0.98678084     0.18500
C1799       C  0.69710740  0.86842981  0.00567752     0.12500
C1800       C  0.68220449  0.92255396  0.98205679    -0.11900
H1801       H  0.62894410  0.91320144  0.96328060     0.12800
C1802       C  0.59725066  0.81747447  0.98942305    -0.22700
H1803       H  0.65142661  0.82702160  0.00712125     0.08400
C1804       C  0.70026283  0.87685963  0.02463349     0.04700
C1805       C  0.72933071  0.87409123  0.03328514    -0.19900
C1806       C  0.75532795  0.86297443  0.02340349    -0.12200
C1807       C  0.75198285  0.85495308  0.00418860     0.13500
C1808       C  0.72283431  0.85773717  0.99565861    -0.22700
C1809       C  0.67301360  0.88894025  0.03562782    -0.05700
H1810       H  0.73162641  0.88040916  0.04792817     0.15000
C1811       C  0.77882456  0.84410130  0.99233574    -0.15900
H1812       H  0.71997845  0.85154556  0.98101940     0.09300
H1813       H  0.60541134  0.80165892  0.00067000     0.07200
H1814       H  0.59585708  0.80366926  0.97630456     0.08400
H1815       H  0.57385002  0.82586054  0.99346574     0.07400
H1816       H  0.70522043  0.91470718  0.97697399     0.02300
H1817       H  0.68498668  0.93377471  0.99597683     0.02800
H1818       H  0.67332501  0.94023038  0.97209815     0.06300
H1819       H  0.67954148  0.89480914  0.05027285     0.05300
H1820       H  0.65442543  0.87108755  0.03608275    -0.00500
H1821       H  0.66386550  0.91023531  0.02885999     0.01000
H1822       H  0.78757020  0.82153784  0.99760964     0.04600
H1823       H  0.79766336  0.86169566  0.99259768     0.06600
H1824       H  0.77196801  0.84059536  0.97746995     0.07400
C1825       C  0.46185467  0.95080297  0.99074906    -0.22200
C1826       C  0.43598804  0.93274189  0.99555098     0.09800
C1827       C  0.43368182  0.90195024  0.98917449     0.10200
C1828       C  0.45735035  0.88985451  0.97790132    -0.17100
C1829       C  0.48306366  0.90804324  0.97256172    -0.27500
C1830       C  0.48544539  0.93894735  0.97924881     0.18500
C1831       C  0.41075506  0.94753721  0.00625222     0.12500
C1832       C  0.40601797  0.88211003  0.99402041    -0.11900
H1833       H  0.45526176  0.86622552  0.97281591     0.12800
C1834       C  0.51271068  0.95950025  0.97460127    -0.22700
H1835       H  0.46322589  0.97453283  0.99577316     0.08400
C1836       C  0.41127190  0.94905698  0.02598835     0.04700
C1837       C  0.38954340  0.96781536  0.03524360    -0.19900
C1838       C  0.36847715  0.98597144  0.02506537    -0.12200
C1839       C  0.36621686  0.98213042  0.00544657     0.13500
C1840       C  0.38744478  0.96288622  0.99625089    -0.22700
C1841       C  0.43581769  0.93242239  0.03712749    -0.05700
H1842       H  0.39096877  0.97057777  0.05028458     0.15000
C1843       C  0.34227348  0.99879287  0.99383911    -0.15900
H1844       H  0.38678827  0.96106291  0.98109430     0.09300
H1845       H  0.51137261  0.98220190  0.98195624     0.07200
H1846       H  0.51323197  0.96433976  0.95933380     0.08400
H1847       H  0.53460692  0.94802818  0.97893578     0.07400
H1848       H  0.38454547  0.89304923  0.98856618     0.02300
H1849       H  0.40414928  0.87968795  0.00946186     0.02800
H1850       H  0.40784621  0.85849684  0.98785663     0.06300
H1851       H  0.43304654  0.93637004  0.05242468     0.05300
H1852       H  0.45915728  0.94089579  0.03296795    -0.00500
H1853       H  0.43433936  0.90708291  0.03445633     0.01000
H1854       H  0.35396908  0.01481983  0.98391190     0.04600
H1855       H  0.32576293  0.01229310  0.00252811     0.06600
H1856       H  0.32853513  0.98155713  0.98573550     0.07400
C1857       C  0.36495422  0.90487721  0.71484110    -0.22200
C1858       C  0.35061806  0.93180765  0.72157886     0.09800
C1859       C  0.33284582  0.93055783  0.73811743     0.10200
C1860       C  0.32987942  0.90230123  0.74765163    -0.17100
C1861       C  0.34441611  0.87511656  0.74114787    -0.27500
C1862       C  0.36221478  0.87649022  0.72442420     0.18500
C1863       C  0.35390694  0.96112121  0.71097281     0.12500
C1864       C  0.31732487  0.95917970  0.74582736    -0.11900
H1865       H  0.31647490  0.90164348  0.76049176     0.12800
C1866       C  0.37786913  0.84826661  0.71630804    -0.22700
H1867       H  0.37836938  0.90616007  0.70201611     0.08400
C1868       C  0.38010832  0.98041849  0.71307018     0.04700
C1869       C  0.38114949  0.00893132  0.70359525    -0.19900
C1870       C  0.35657635  0.01861344  0.69202370    -0.12200
C1871       C  0.33035817  0.99885258  0.68984598     0.13500
C1872       C  0.32953240  0.97035722  0.69932818    -0.22700
C1873       C  0.40665809  0.97113281  0.72557492    -0.05700
H1874       H  0.40126487  0.02379592  0.70532776     0.15000
C1875       C  0.30259985  0.00774916  0.67815910    -0.15900
H1876       H  0.30945892  0.95531322  0.69795307     0.09300
H1877       H  0.39621036  0.83994997  0.72597763     0.07200
H1878       H  0.38914576  0.85342691  0.70266265     0.08400
H1879       H  0.36048900  0.82961323  0.71392268     0.07400
H1880       H  0.30030495  0.96820952  0.73552218     0.02300
H1881       H  0.33502179  0.97733053  0.74871909     0.02800
H1882       H  0.30475144  0.95427439  0.75908476     0.06300
H1883       H  0.42523329  0.98903663  0.72581167     0.05300
H1884       H  0.41691953  0.94907816  0.72046816    -0.00500
H1885       H  0.39817795  0.96785409  0.74013265     0.01000
H1886       H  0.30938778  0.00981045  0.66321057     0.04600
H1887       H  0.29288791  0.03007519  0.68323813     0.06600
H1888       H  0.28384896  0.99007343  0.67895214     0.07400
C1889       C  0.44423409  0.88821174  0.87270782    -0.22200
C1890       C  0.44103732  0.85922299  0.86406413     0.09800
C1891       C  0.45529596  0.83286094  0.87189764     0.10200
C1892       C  0.47300792  0.83620177  0.88818410    -0.17100
C1893       C  0.47687178  0.86530249  0.89675317    -0.27500
C1894       C  0.46168940  0.89160905  0.88915873     0.18500
C1895       C  0.42180726  0.85645987  0.84710820     0.12500
C1896       C  0.45202361  0.80128134  0.86296607    -0.11900
H1897       H  0.48480092  0.81610843  0.89388503     0.12800
C1898       C  0.46235780  0.92326243  0.89820477    -0.22700
H1899       H  0.43262964  0.90819472  0.86672357     0.08400
C1900       C  0.38965209  0.85130912  0.84843172     0.04700
C1901       C  0.37285919  0.84458051  0.83214982    -0.19900
C1902       C  0.38767711  0.84218016  0.81465878    -0.12200
C1903       C  0.41977562  0.84899920  0.81327153     0.13500
C1904       C  0.43640250  0.85628152  0.82959524    -0.22700
C1905       C  0.37337631  0.85163825  0.86712256    -0.05700
H1906       H  0.34831963  0.83939727  0.83330081     0.15000
C1907       C  0.43673623  0.84861955  0.79479602    -0.15900
H1908       H  0.46116305  0.86056795  0.82884704     0.09300
H1909       H  0.43822005  0.93156527  0.90024587     0.07200
H1910       H  0.47476156  0.93984198  0.88894011     0.08400
H1911       H  0.47340915  0.92341324  0.91220350     0.07400
H1912       H  0.46162278  0.80178457  0.84853453     0.02300
H1913       H  0.42716153  0.79458598  0.86235760     0.02800
H1914       H  0.46462220  0.78316377  0.87098129     0.06300
H1915       H  0.34816847  0.84682929  0.86566899     0.05300
H1916       H  0.37616622  0.87477121  0.87379263    -0.00500
H1917       H  0.38347713  0.83365256  0.87642356     0.01000
H1918       H  0.46099606  0.85700897  0.79629445     0.04600
H1919       H  0.42475846  0.86399213  0.78463556     0.06600
H1920       H  0.43782864  0.82464171  0.78916436     0.07400
C1921       C  0.26848497  0.54719226  0.97934052    -0.22200
C1922       C  0.25511091  0.57411937  0.98672021     0.09800
C1923       C  0.26990434  0.60299190  0.98408204     0.10200
C1924       C  0.29724854  0.60443122  0.97340012    -0.17100
C1925       C  0.31033983  0.57759500  0.96539685    -0.27500
C1926       C  0.29594600  0.54842396  0.96877939     0.18500
C1927       C  0.22561987  0.57126716  0.99724534     0.12500
C1928       C  0.25696449  0.63218098  0.99267935    -0.11900
H1929       H  0.30821148  0.62676255  0.97109425     0.12800
C1930       C  0.30952287  0.51832616  0.96178113    -0.22700
H1931       H  0.25716462  0.52506601  0.98178691     0.08400
C1932       C  0.19663959  0.57491454  0.98832633     0.04700
C1933       C  0.16929323  0.57102210  0.99875960    -0.19900
C1934       C  0.17026109  0.56266139  0.01776906    -0.12200
C1935       C  0.19943614  0.55896589  0.02667400     0.13500
C1936       C  0.22673987  0.56344060  0.01627266    -0.22700
C1937       C  0.19460059  0.58221287  0.96771644    -0.05700
H1938       H  0.14701074  0.57380859  0.99192716     0.15000
C1939       C  0.20206835  0.55119763  0.04721515    -0.15900
H1940       H  0.24914562  0.56061499  0.02295416     0.09300
H1941       H  0.29631443  0.49789265  0.96695222     0.07200
H1942       H  0.33381309  0.51600012  0.96676693     0.08400
H1943       H  0.30882755  0.51756456  0.94624509     0.07400
H1944       H  0.25604023  0.62965840  0.00815448     0.02300
H1945       H  0.23321597  0.63653657  0.98732498     0.02800
H1946       H  0.27148938  0.65277540  0.98935916     0.06300
H1947       H  0.17015437  0.58398414  0.96292273     0.05300
H1948       H  0.20604394  0.56355509  0.95951340    -0.00500
H1949       H  0.20628181  0.60462621  0.96472581     0.01000
H1950       H  0.19236368  0.52775456  0.04990894     0.04600
H1951       H  0.18936456  0.56869849  0.05567609     0.06600
H1952       H  0.22659461  0.55108367  0.05199263     0.07400
C1953       C  0.46611663  0.50400239  0.98635788    -0.22200
C1954       C  0.49546851  0.51813678  0.98630142     0.09800
C1955       C  0.49976736  0.54673876  0.97714760     0.10200
C1956       C  0.47449495  0.56059996  0.96810271    -0.17100
C1957       C  0.44525927  0.54609815  0.96762668    -0.27500
C1958       C  0.44089300  0.51757338  0.97700990     0.18500
C1959       C  0.52147576  0.50185775  0.99546935     0.12500
C1960       C  0.53110564  0.56224406  0.97662302    -0.11900
H1961       H  0.47787541  0.58234575  0.96073921     0.12800
C1962       C  0.40969504  0.50177156  0.97754021    -0.22700
H1963       H  0.46311289  0.48204342  0.99354204     0.08400
C1964       C  0.52738001  0.50525972  0.01479567     0.04700
C1965       C  0.54945182  0.48605451  0.02335951    -0.19900
C1966       C  0.56516890  0.46322174  0.01302541    -0.12200
C1967       C  0.56112979  0.46176559  0.99335905     0.13500
C1968       C  0.53908468  0.48099301  0.98483790    -0.22700
C1969       C  0.50933671  0.52807459  0.02648802    -0.05700
H1970       H  0.55253590  0.48716156  0.03842935     0.15000
C1971       C  0.57943902  0.44005144  0.98103579    -0.15900
H1972       H  0.53492402  0.47904611  0.96988918     0.09300
H1973       H  0.41017335  0.48050545  0.98632233     0.07200
H1974       H  0.40256302  0.49480482  0.96319747     0.08400
H1975       H  0.39215218  0.51781003  0.98352223     0.07400
H1976       H  0.54810074  0.54675793  0.96962598     0.02300
H1977       H  0.53912883  0.56720491  0.99110246     0.02800
H1978       H  0.53042782  0.58450306  0.96879502     0.06300
H1979       H  0.51673125  0.52764608  0.04140049     0.05300
H1980       H  0.48423476  0.52235203  0.02590515    -0.00500
H1981       H  0.51295942  0.55193606  0.02105988     0.01000
H1982       H  0.56356778  0.42290417  0.97442904     0.04600
H1983       H  0.59777739  0.42743657  0.98879736     0.06600
H1984       H  0.59115008  0.45359411  0.96984188     0.07400
C1985       C  0.35747793  0.69334349  0.83329259    -0.22200
C1986       C  0.32890055  0.68707472  0.84184393     0.09800
C1987       C  0.30191922  0.70196826  0.83531494     0.10200
C1988       C  0.30427480  0.72325741  0.82050146    -0.17100
C1989       C  0.33301935  0.73014212  0.81209318    -0.27500
C1990       C  0.35998538  0.71459636  0.81849191     0.18500
C1991       C  0.32874891  0.66680462  0.85859925     0.12500
C1992       C  0.27071367  0.69541772  0.84395896    -0.11900
H1993       H  0.28353614  0.73492773  0.81563519     0.12800
C1994       C  0.39172443  0.72112188  0.81051865    -0.22700
H1995       H  0.37814146  0.68209001  0.83863896     0.08400
C1996       C  0.33517139  0.63480252  0.85733624     0.04700
C1997       C  0.34079080  0.61790308  0.87379133    -0.19900
C1998       C  0.34055693  0.63238043  0.89148960    -0.12200
C1999       C  0.33143399  0.66398062  0.89274195     0.13500
C2000       C  0.32577835  0.68071916  0.87624343    -0.22700
C2001       C  0.33672982  0.61866702  0.83861139    -0.05700
H2002       H  0.34728127  0.59368596  0.87266130     0.15000
C2003       C  0.32805948  0.68062414  0.91124373    -0.15900
H2004       H  0.32062202  0.70530739  0.87705616     0.09300
H2005       H  0.39240369  0.71444065  0.79549685     0.07200
H2006       H  0.41008640  0.70770435  0.81781400     0.08400
H2007       H  0.39738193  0.74615565  0.81208795     0.07400
H2008       H  0.27074575  0.70230497  0.85894594     0.02300
H2009       H  0.26540564  0.67025335  0.84283282     0.02800
H2010       H  0.25190402  0.70845544  0.83683499     0.06300
H2011       H  0.34119709  0.59341926  0.84016698     0.05300
H2012       H  0.35569474  0.62864905  0.83000094    -0.00500
H2013       H  0.31434588  0.62157319  0.83111908     0.01000
H2014       H  0.35106843  0.68397941  0.91790745     0.04600
H2015       H  0.31260419  0.66712605  0.92066038     0.06600
H2016       H  0.31771336  0.70403094  0.90945875     0.07400
C2017       C  0.66226329  0.50398794  0.76600911    -0.22200
C2018       C  0.65365141  0.50368026  0.74708838     0.09800
C2019       C  0.64359597  0.53128926  0.73844990     0.10200
C2020       C  0.64221682  0.55872156  0.74900239    -0.17100
C2021       C  0.65086422  0.55930929  0.76799987    -0.27500
C2022       C  0.66108564  0.53147975  0.77662103     0.18500
C2023       C  0.65490237  0.47412435  0.73652574     0.12500
C2024       C  0.63433605  0.53175819  0.71808256    -0.11900
H2025       H  0.63455095  0.57993479  0.74230268     0.12800
C2026       C  0.66982589  0.53019948  0.79706144    -0.22700
H2027       H  0.66983544  0.48254906  0.77248258     0.08400
C2028       C  0.68191964  0.46490030  0.72696367     0.04700
C2029       C  0.68120379  0.43799827  0.71587646    -0.19900
C2030       C  0.65411314  0.41989092  0.71418583    -0.12200
C2031       C  0.62730969  0.42869706  0.72445035     0.13500
C2032       C  0.62812359  0.45578282  0.73544017    -0.22700
C2033       C  0.71132205  0.48374805  0.72825088    -0.05700
H2034       H  0.70190419  0.43131704  0.70827228     0.15000
C2035       C  0.59741988  0.41056032  0.72347477    -0.15900
H2036       H  0.60754437  0.46314282  0.74294573     0.09300
H2037       H  0.69061699  0.54479979  0.79967265     0.07200
H2038       H  0.67550476  0.50620410  0.80157418     0.08400
H2039       H  0.65018947  0.53851189  0.80578399     0.07400
H2040       H  0.61456051  0.51566563  0.71574572     0.02300
H2041       H  0.65419041  0.52438548  0.70924531     0.02800
H2042       H  0.62714928  0.55530369  0.71350271     0.06300
H2043       H  0.73035926  0.47330785  0.71988191     0.05300
H2044       H  0.71903626  0.48508049  0.74307922    -0.00500
H2045       H  0.70716188  0.50758140  0.72293230     0.01000
H2046       H  0.60103970  0.38679938  0.72904233     0.04600
H2047       H  0.58919284  0.40931034  0.70876250     0.06600
H2048       H  0.57879415  0.42153168  0.73193799     0.07400
C2049       C  0.56403450  0.61740259  0.86601300    -0.22200
C2050       C  0.53657531  0.60251069  0.86061351     0.09800
C2051       C  0.53328131  0.59151751  0.84209836     0.10200
C2052       C  0.55744708  0.59620632  0.82924418    -0.17100
C2053       C  0.58472074  0.61195552  0.83439499    -0.27500
C2054       C  0.58797696  0.62289906  0.85310900     0.18500
C2055       C  0.51071144  0.60058855  0.87420070     0.12500
C2056       C  0.50412540  0.57513418  0.83587705    -0.11900
H2057       H  0.55472647  0.58819428  0.81492360     0.12800
C2058       C  0.61488883  0.64239439  0.85990342    -0.22700
H2059       H  0.56615675  0.62616457  0.88021829     0.08400
C2060       C  0.51000835  0.57789349  0.88841802     0.04700
C2061       C  0.48433339  0.57645306  0.90047855    -0.19900
C2062       C  0.45964658  0.59742389  0.89870996    -0.12200
C2063       C  0.46045772  0.62030445  0.88452024     0.13500
C2064       C  0.48617728  0.62172136  0.87253900    -0.22700
C2065       C  0.53608954  0.55499967  0.89064813    -0.05700
H2066       H  0.48346586  0.55888355  0.91133764     0.15000
C2067       C  0.43421008  0.64270614  0.88107411    -0.15900
H2068       H  0.48685126  0.63907811  0.86154837     0.09300
H2069       H  0.62737253  0.62980245  0.87117664     0.07200
H2070       H  0.60597963  0.66459433  0.86571226     0.08400
H2071       H  0.63173107  0.64866569  0.84890852     0.07400
H2072       H  0.48393825  0.59091644  0.83724851     0.02300
H2073       H  0.50025109  0.55426523  0.84469421     0.02800
H2074       H  0.50556497  0.56756261  0.82101641     0.06300
H2075       H  0.53165808  0.53853927  0.90231980     0.05300
H2076       H  0.55803932  0.56754663  0.89369105    -0.00500
H2077       H  0.53883829  0.54137602  0.87753436     0.01000
H2078       H  0.44277901  0.66687489  0.88273314     0.04600
H2079       H  0.41435272  0.63940015  0.89069873     0.06600
H2080       H  0.42540049  0.63964949  0.86655437     0.07400
C2081       C  0.65057609  0.76052659  0.84570590    -0.22200
C2082       C  0.62004493  0.76439287  0.85198719     0.09800
C2083       C  0.59590078  0.74673738  0.84390910     0.10200
C2084       C  0.60299771  0.72489403  0.83002988    -0.17100
C2085       C  0.63370351  0.72000149  0.82421633    -0.27500
C2086       C  0.65774418  0.73864193  0.83177499     0.18500
C2087       C  0.61365933  0.78611835  0.86754865     0.12500
C2088       C  0.56281728  0.75013734  0.85043431    -0.11900
H2089       H  0.58462433  0.71041334  0.82437814     0.12800
C2090       C  0.69093433  0.73656636  0.82527782    -0.22700
H2091       H  0.66893359  0.77448223  0.85183031     0.08400
C2092       C  0.61609487  0.77649750  0.88634556     0.04700
C2093       C  0.60574787  0.79630151  0.90061912    -0.19900
C2094       C  0.59225347  0.82520561  0.89653332    -0.12200
C2095       C  0.59031669  0.83499700  0.87754024     0.13500
C2096       C  0.60178466  0.81550294  0.86338586    -0.22700
C2097       C  0.62831958  0.74477897  0.89124938    -0.05700
H2098       H  0.60691841  0.78855644  0.91505698     0.15000
C2099       C  0.57424643  0.86425058  0.87116823    -0.15900
H2100       H  0.59961002  0.82243246  0.84883261     0.09300
H2101       H  0.70583635  0.72870916  0.83703820     0.07200
H2102       H  0.69892534  0.75984813  0.82064332     0.08400
H2103       H  0.69408496  0.72058782  0.81325559     0.07400
H2104       H  0.55477406  0.77425422  0.84799221     0.02300
H2105       H  0.56124243  0.74479242  0.86562450     0.02800
H2106       H  0.54692125  0.73416216  0.84283480     0.06300
H2107       H  0.62832211  0.74077677  0.90662539     0.05300
H2108       H  0.65249497  0.74237892  0.88611061    -0.00500
H2109       H  0.61362458  0.72662012  0.88462382     0.01000
H2110       H  0.59124327  0.87956208  0.86399788     0.04600
H2111       H  0.56314317  0.87766508  0.88247351     0.06600
H2112       H  0.55558695  0.85810536  0.86107110     0.07400
C2113       C  0.70386988  0.53862145  0.47815103    -0.22200
C2114       C  0.72297232  0.56487779  0.47948752     0.09800
C2115       C  0.71362507  0.59303676  0.47118053     0.10200
C2116       C  0.68554172  0.59409342  0.46128882    -0.17100
C2117       C  0.66686375  0.56756302  0.45943224    -0.27500
C2118       C  0.67564042  0.53968736  0.46844566     0.18500
C2119       C  0.75293672  0.56214232  0.48939631     0.12500
C2120       C  0.73332517  0.62185234  0.47270796    -0.11900
H2121       H  0.67859814  0.61545844  0.45446660     0.12800
C2122       C  0.65550078  0.51101139  0.46865839    -0.22700
H2123       H  0.71101542  0.51716770  0.48480183     0.08400
C2124       C  0.75456709  0.56113378  0.50910652     0.04700
C2125       C  0.78354078  0.55770375  0.51778179    -0.19900
C2126       C  0.81094776  0.55557333  0.50720594    -0.12200
C2127       C  0.80914825  0.55652666  0.48735063     0.13500
C2128       C  0.78010961  0.55989203  0.47876695    -0.22700
C2129       C  0.72582044  0.56424041  0.52095220    -0.05700
H2130       H  0.78486179  0.55715918  0.53295477     0.15000
C2131       C  0.83675511  0.55286442  0.47459678    -0.15900
H2132       H  0.77856235  0.56034375  0.46359213     0.09300
H2133       H  0.65102475  0.50405714  0.48339859     0.07200
H2134       H  0.66763084  0.49175215  0.46137985     0.08400
H2135       H  0.63259912  0.51449005  0.46195640     0.07400
H2136       H  0.75619134  0.61786882  0.46599564     0.02300
H2137       H  0.73686938  0.62783263  0.48770050     0.02800
H2138       H  0.72228155  0.64201059  0.46569707     0.06300
H2139       H  0.73132355  0.56373549  0.53615825     0.05300
H2140       H  0.70959980  0.54483942  0.51791884    -0.00500
H2141       H  0.71419251  0.58661599  0.51781444     0.01000
H2142       H  0.83281883  0.53290483  0.46501061     0.04600
H2143       H  0.85857559  0.54834967  0.48212519     0.06600
H2144       H  0.83974602  0.57422342  0.46608658     0.07400
C2145       C  0.02394740  0.42734140  0.48403080    -0.22200
C2146       C  0.99317445  0.41715557  0.48250813     0.09800
C2147       C  0.98616702  0.38937428  0.47300122     0.10200
C2148       C  0.01030180  0.37255274  0.46475280    -0.17100
C2149       C  0.04098330  0.38345083  0.46547747    -0.27500
C2150       C  0.04807491  0.41083570  0.47550507     0.18500
C2151       C  0.96860329  0.43683666  0.49033881     0.12500
C2152       C  0.95322925  0.37800465  0.47119761    -0.11900
H2153       H  0.00501939  0.35158462  0.45694027     0.12800
C2154       C  0.08093147  0.42243754  0.47744999    -0.22700
H2155       H  0.02893113  0.44865055  0.49156943     0.08400
C2156       C  0.95982610  0.43453214  0.50926325     0.04700
C2157       C  0.93835621  0.45570067  0.51644971    -0.19900
C2158       C  0.92608845  0.47947350  0.50520270    -0.12200
C2159       C  0.93375923  0.48063423  0.48593312     0.13500
C2160       C  0.95512015  0.45928548  0.47877007    -0.22700
C2161       C  0.97397692  0.41051724  0.52198013    -0.05700
H2162       H  0.93269625  0.45488407  0.53124882     0.15000
C2163       C  0.91984344  0.50365946  0.47250889    -0.15900
H2164       H  0.96176664  0.46048475  0.46412602     0.09300
H2165       H  0.09564357  0.40401026  0.48368746     0.07200
H2166       H  0.08229648  0.44321722  0.48665104     0.08400
H2167       H  0.09034089  0.42903904  0.46354661     0.07400
H2168       H  0.93908522  0.39554508  0.46368822     0.02300
H2169       H  0.94319828  0.37409131  0.48532431     0.02800
H2170       H  0.95187014  0.35584586  0.46325974     0.06300
H2171       H  0.96457932  0.41205323  0.53644489     0.05300
H2172       H  0.99947824  0.41395317  0.52271239    -0.00500
H2173       H  0.96898785  0.38691559  0.51648539     0.01000
H2174       H  0.93829583  0.51913349  0.46695922     0.04600
H2175       H  0.90163194  0.51801112  0.47903325     0.06600
H2176       H  0.90889367  0.49104892  0.46063078     0.07400
C2177       C  0.11569456  0.45648575  0.71872589    -0.22200
C2178       C  0.14110476  0.43634042  0.71909437     0.09800
C2179       C  0.16811988  0.44397566  0.70899490     0.10200
C2180       C  0.16919764  0.47178833  0.69876743    -0.17100
C2181       C  0.14388086  0.49240955  0.69838696    -0.27500
C2182       C  0.11660607  0.48441298  0.70854516     0.18500
C2183       C  0.13933841  0.40786467  0.73072417     0.12500
C2184       C  0.19589708  0.42282227  0.70915943    -0.11900
H2185       H  0.19013057  0.47747093  0.69108957     0.12800
C2186       C  0.08810133  0.50463615  0.70864971    -0.22700
H2187       H  0.09506699  0.45032099  0.72658723     0.08400
C2188       C  0.14641626  0.40870691  0.75000252     0.04700
C2189       C  0.14499070  0.38123264  0.76049471    -0.19900
C2190       C  0.13622665  0.35286880  0.75225601    -0.12200
C2191       C  0.12907805  0.35208254  0.73286306     0.13500
C2192       C  0.13080440  0.37965413  0.72233977    -0.22700
C2193       C  0.15556850  0.43863858  0.75947314    -0.05700
H2194       H  0.15037720  0.38201778  0.77533120     0.15000
C2195       C  0.12062417  0.32225665  0.72303554    -0.15900
H2196       H  0.12557892  0.37925732  0.70747751     0.09300
H2197       H  0.09354250  0.52740311  0.71517741     0.07200
H2198       H  0.06889325  0.49406693  0.71684088     0.08400
H2199       H  0.07961062  0.50803924  0.69411213     0.07400
H2200       H  0.18938931  0.39979240  0.70334959     0.02300
H2201       H  0.20434191  0.41985907  0.72374930     0.02800
H2202       H  0.21525370  0.43227015  0.70061207     0.06300
H2203       H  0.16055108  0.43521486  0.77460400     0.05300
H2204       H  0.13644609  0.45573110  0.75823347    -0.00500
H2205       H  0.17672564  0.44824160  0.75274987     0.01000
H2206       H  0.09843408  0.31308386  0.72864771     0.04600
H2207       H  0.13929616  0.30486523  0.72509352     0.06600
H2208       H  0.11756057  0.32572841  0.70772197     0.07400
C2209       C  0.27401633  0.71454119  0.71423736    -0.22200
C2210       C  0.25437043  0.69564934  0.72500484     0.09800
C2211       C  0.25030033  0.70194154  0.74422682     0.10200
C2212       C  0.26603901  0.72704395  0.75231049    -0.17100
C2213       C  0.28608536  0.74574010  0.74168658    -0.27500
C2214       C  0.29000379  0.73962630  0.72235695     0.18500
C2215       C  0.23644342  0.67071447  0.71572203     0.12500
C2216       C  0.22942239  0.68208789  0.75620173    -0.11900
H2217       H  0.26347511  0.73149431  0.76719740     0.12800
C2218       C  0.30996474  0.75951895  0.70984823    -0.22700
H2219       H  0.27656005  0.70990030  0.69937633     0.08400
C2220       C  0.20791677  0.67729740  0.70701573     0.04700
C2221       C  0.19067857  0.65299492  0.69919073    -0.19900
C2222       C  0.20134654  0.62218774  0.69966979    -0.12200
C2223       C  0.22985259  0.61550952  0.70863991     0.13500
C2224       C  0.24714063  0.64000132  0.71650311    -0.22700
C2225       C  0.19570438  0.71001459  0.70596160    -0.05700
H2226       H  0.16906567  0.65827574  0.69210772     0.15000
C2227       C  0.24216776  0.58301858  0.71082537    -0.15900
H2228       H  0.26886950  0.63508092  0.72354722     0.09300
H2229       H  0.29567789  0.76870638  0.69815601     0.07200
H2230       H  0.32905325  0.74530656  0.70392472     0.08400
H2231       H  0.32022258  0.77970795  0.71724737     0.07400
H2232       H  0.23785965  0.65775902  0.75614203     0.02300
H2233       H  0.20539254  0.68270560  0.75062015     0.02800
H2234       H  0.22886116  0.69027878  0.77096718     0.06300
H2235       H  0.17293151  0.71105270  0.69870611     0.05300
H2236       H  0.21228049  0.72485184  0.69810983    -0.00500
H2237       H  0.19269744  0.71952025  0.72031604     0.01000
H2238       H  0.26456497  0.58087234  0.70326465     0.04600
H2239       H  0.22602819  0.56501247  0.70552659     0.06600
H2240       H  0.24610284  0.57814764  0.72592226     0.07400
C2241       C  0.04588263  0.51436119  0.61571437    -0.22200
C2242       C  0.05207445  0.52575599  0.59773117     0.09800
C2243       C  0.08213903  0.53636768  0.59326358     0.10200
C2244       C  0.10471813  0.53785355  0.60744560    -0.17100
C2245       C  0.09748873  0.52941832  0.62594915    -0.27500
C2246       C  0.06833480  0.51578274  0.62986563     0.18500
C2247       C  0.02553950  0.53038646  0.58492272     0.12500
C2248       C  0.08984902  0.54738853  0.57379492    -0.11900
H2249       H  0.12713330  0.54814231  0.60442130     0.12800
C2250       C  0.05998346  0.50320016  0.64891325    -0.22700
H2251       H  0.02287907  0.50567333  0.61897300     0.08400
C2252       C  0.01272594  0.50585880  0.57435607     0.04700
C2253       C  0.98514068  0.51086252  0.56435011    -0.19900
C2254       C  0.97033698  0.53986325  0.56468099    -0.12200
C2255       C  0.98350770  0.56458829  0.57504254     0.13500
C2256       C  0.01108655  0.55951273  0.58495344    -0.22700
C2257       C  0.02811808  0.47454467  0.57371806    -0.05700
H2258       H  0.97499946  0.49206516  0.55626915     0.15000
C2259       C  0.96846433  0.59606167  0.57674893    -0.15900
H2260       H  0.02086811  0.57815268  0.59332918     0.09300
H2261       H  0.05218157  0.47872639  0.64749340     0.07200
H2262       H  0.04084482  0.51711965  0.65503435     0.08400
H2263       H  0.07989136  0.50329772  0.65874929     0.07400
H2264       H  0.07493362  0.56740163  0.57002332     0.02300
H2265       H  0.08586982  0.52827269  0.56361728     0.02800
H2266       H  0.11445214  0.55485534  0.57265567     0.06300
H2267       H  0.01522542  0.45804087  0.56460164     0.05300
H2268       H  0.02924180  0.46456014  0.58803529    -0.00500
H2269       H  0.05200898  0.47699618  0.56809919     0.01000
H2270       H  0.96385258  0.60119008  0.59175121     0.04600
H2271       H  0.94607927  0.59777066  0.56921146     0.06600
H2272       H  0.98434670  0.61408285  0.57110082     0.07400
C2273       C  0.85325351  0.92468182  0.72656348    -0.22200
C2274       C  0.85636643  0.95254986  0.71661051     0.09800
C2275       C  0.86243354  0.95180137  0.69720660     0.10200
C2276       C  0.86490735  0.92305361  0.68810479    -0.17100
C2277       C  0.86168140  0.89508946  0.69799773    -0.27500
C2278       C  0.85550416  0.89585857  0.71748119     0.18500
C2279       C  0.85289568  0.98228790  0.72678638     0.12500
C2280       C  0.86586828  0.98132252  0.68610207    -0.11900
H2281       H  0.86936288  0.92235924  0.67315301     0.12800
C2282       C  0.84963639  0.86708248  0.72898057    -0.22700
H2283       H  0.84838570  0.92546815  0.74146816     0.08400
C2284       C  0.82344410  0.99450555  0.73109420     0.04700
C2285       C  0.82138262  0.02230703  0.74129972    -0.19900
C2286       C  0.84812900  0.03841523  0.74711633    -0.12200
C2287       C  0.87773067  0.02627588  0.74236117     0.13500
C2288       C  0.87961948  0.99830103  0.73232331    -0.22700
C2289       C  0.79425505  0.97824498  0.72482263    -0.05700
H2290       H  0.79870847  0.03149036  0.74476551     0.15000
C2291       C  0.90752818  0.04185094  0.74827038    -0.15900
H2292       H  0.90210713  0.98863589  0.72886536     0.09300
H2293       H  0.82639372  0.86867412  0.73561790     0.07200
H2294       H  0.86745507  0.86529229  0.74016418     0.08400
H2295       H  0.84998315  0.84539530  0.72065751     0.07400
H2296       H  0.88571103  0.99505888  0.69158620     0.02300
H2297       H  0.84433745  0.99528830  0.68726093     0.02800
H2298       H  0.87017472  0.97656218  0.67102246     0.06300
H2299       H  0.77313215  0.99113235  0.72912331     0.05300
H2300       H  0.79312238  0.95470570  0.73109451    -0.00500
H2301       H  0.79412864  0.97615741  0.70930806     0.01000
H2302       H  0.92822180  0.02820457  0.74405389     0.04600
H2303       H  0.90809049  0.04438589  0.76374351     0.06600
H2304       H  0.90948241  0.06497998  0.74153974     0.07400
C2305       C  0.75707190  0.76683911  0.72058854    -0.22200
C2306       C  0.76301686  0.73502370  0.72263302     0.09800
C2307       C  0.78894006  0.72173108  0.71371908     0.10200
C2308       C  0.80893897  0.74079819  0.70336269    -0.17100
C2309       C  0.80338224  0.77276987  0.70150166    -0.27500
C2310       C  0.77702024  0.78600987  0.71016688     0.18500
C2311       C  0.74274925  0.71634949  0.73500164     0.12500
C2312       C  0.79544265  0.68746526  0.71515925    -0.11900
H2313       H  0.82892190  0.73062402  0.69648429     0.12800
C2314       C  0.76991217  0.82023588  0.70948204    -0.22700
H2315       H  0.73714688  0.77690644  0.72757868     0.08400
C2316       C  0.74915632  0.71355999  0.75429990     0.04700
C2317       C  0.72916648  0.69606461  0.76564915    -0.19900
C2318       C  0.70264595  0.68158780  0.75819775    -0.12200
C2319       C  0.69669089  0.68382696  0.73868328     0.13500
C2320       C  0.71691772  0.70121028  0.72733727    -0.22700
C2321       C  0.77692554  0.72937191  0.76292759    -0.05700
H2322       H  0.73382709  0.69443696  0.78054708     0.15000
C2323       C  0.66962843  0.66744379  0.72960382    -0.15900
H2324       H  0.71251936  0.70319827  0.71242570     0.09300
H2325       H  0.76841822  0.82948921  0.72398817     0.07200
H2326       H  0.74729183  0.82386898  0.70237991     0.08400
H2327       H  0.78780601  0.83399622  0.70207160     0.07400
H2328       H  0.77560184  0.67412818  0.70931349     0.02300
H2329       H  0.79881714  0.68087580  0.73005211     0.02800
H2330       H  0.81664254  0.68086005  0.70727518     0.06300
H2331       H  0.77853024  0.72486418  0.77822087     0.05300
H2332       H  0.77525458  0.75484313  0.76082446    -0.00500
H2333       H  0.79851823  0.72076804  0.75625806     0.01000
H2334       H  0.66998687  0.66996541  0.71411221     0.04600
H2335       H  0.64746475  0.67742679  0.73466809     0.06600
H2336       H  0.67045811  0.64226724  0.73289953     0.07400
C2337       C  0.83954634  0.69509224  0.62270616    -0.22200
C2338       C  0.86636635  0.68855606  0.61242867     0.09800
C2339       C  0.89351736  0.70628717  0.61521251     0.10200
C2340       C  0.89305936  0.73073435  0.62817211    -0.17100
C2341       C  0.86595343  0.73781933  0.63812637    -0.27500
C2342       C  0.83901396  0.71946036  0.63567082     0.18500
C2343       C  0.86556449  0.66284762  0.59885712     0.12500
C2344       C  0.92266495  0.69971009  0.60426888    -0.11900
H2345       H  0.91352729  0.74509220  0.63003577     0.12800
C2346       C  0.80960920  0.72443456  0.64672227    -0.22700
H2347       H  0.81894686  0.68100371  0.62062715     0.08400
C2348       C  0.87302915  0.63237553  0.60429612     0.04700
C2349       C  0.87369003  0.60897833  0.59069659    -0.19900
C2350       C  0.86699964  0.61547834  0.57184207    -0.12200
C2351       C  0.85756459  0.64571975  0.56665711     0.13500
C2352       C  0.85739647  0.66918976  0.58026074    -0.22700
C2353       C  0.88094343  0.62477898  0.62434306    -0.05700
H2354       H  0.88082253  0.58577985  0.59467308     0.15000
C2355       C  0.84678782  0.65391823  0.54717899    -0.15900
H2356       H  0.85089307  0.69261394  0.57635611     0.09300
H2357       H  0.80338274  0.70266181  0.65415551     0.07200
H2358       H  0.79044620  0.73065368  0.63703855     0.08400
H2359       H  0.81173281  0.74286101  0.65748688     0.07400
H2360       H  0.91802904  0.70231219  0.58904422     0.02300
H2361       H  0.93060002  0.67566478  0.60707412     0.02800
H2362       H  0.94172978  0.71588705  0.60812946     0.06300
H2363       H  0.88636844  0.59977007  0.62616068     0.05300
H2364       H  0.86099134  0.63051811  0.63354056    -0.00500
H2365       H  0.90148109  0.63844672  0.62886810     0.01000
H2366       H  0.82338140  0.66456263  0.54796709     0.04600
H2367       H  0.84476824  0.63351216  0.53779925     0.06600
H2368       H  0.86307810  0.67091229  0.54084225     0.07400
C2369       C  0.33063705  0.83516330  0.49012563    -0.22200
C2370       C  0.31188704  0.86156862  0.49106182     0.09800
C2371       C  0.32133168  0.88914847  0.48216777     0.10200
C2372       C  0.34932044  0.88958316  0.47221432    -0.17100
C2373       C  0.36813422  0.86299288  0.47082272    -0.27500
C2374       C  0.35863152  0.83536211  0.48008165     0.18500
C2375       C  0.28206390  0.85967442  0.50116726     0.12500
C2376       C  0.30153847  0.91791829  0.48288174    -0.11900
H2377       H  0.35628952  0.91084062  0.46527478     0.12800
C2378       C  0.37707329  0.80570037  0.47914765    -0.22700
H2379       H  0.32299162  0.81414125  0.49708755     0.08400
C2380       C  0.25544175  0.84705765  0.49261910     0.04700
C2381       C  0.22748522  0.84634323  0.50262053    -0.19900
C2382       C  0.22537006  0.85814200  0.52100402    -0.12200
C2383       C  0.25247587  0.87069070  0.52955024     0.13500
C2384       C  0.28042514  0.87114265  0.51947050    -0.22700
C2385       C  0.25647770  0.83479248  0.47283624    -0.05700
H2386       H  0.20707307  0.83678151  0.49586616     0.15000
C2387       C  0.25261406  0.88362184  0.54920154    -0.15900
H2388       H  0.30119588  0.88074279  0.52582023     0.09300
H2389       H  0.37960146  0.79817842  0.46433524     0.07200
H2390       H  0.36555678  0.78651462  0.48688556     0.08400
H2391       H  0.40025826  0.80927609  0.48557634     0.07400
H2392       H  0.29858015  0.92550789  0.49764498     0.02300
H2393       H  0.27841041  0.91293678  0.47670466     0.02800
H2394       H  0.31213509  0.93739742  0.47494077     0.06300
H2395       H  0.23347309  0.82607698  0.46816142     0.05300
H2396       H  0.27324724  0.81533579  0.47191481    -0.00500
H2397       H  0.26379360  0.85356430  0.46313589     0.01000
H2398       H  0.24519003  0.86543651  0.55926893     0.04600
H2399       H  0.23692702  0.90396748  0.55008275     0.06600
H2400       H  0.27607893  0.89160048  0.55351413     0.07400
C2401       C  0.08719057  0.95805436  0.49286972    -0.22200
C2402       C  0.07106118  0.97780197  0.50504459     0.09800
C2403       C  0.07682753  0.97665175  0.52444464     0.10200
C2404       C  0.09761568  0.95454459  0.53138563    -0.17100
C2405       C  0.11133452  0.93254637  0.51944047    -0.27500
C2406       C  0.10719424  0.93518698  0.49983630     0.18500
C2407       C  0.04614485  0.99724513  0.49722132     0.12500
C2408       C  0.06012409  0.99788114  0.53783261    -0.11900
H2409       H  0.10122420  0.95291998  0.54638747     0.12800
C2410       C  0.12369635  0.91412530  0.48622706    -0.22700
H2411       H  0.08289232  0.95958025  0.47792426     0.08400
C2412       C  0.05252785  0.02556422  0.48817746     0.04700
C2413       C  0.02840201  0.04112610  0.47898283    -0.19900
C2414       C  0.99829374  0.02860284  0.47845926    -0.12200
C2415       C  0.99157103  0.00130398  0.48866330     0.13500
C2416       C  0.01572125  0.98580156  0.49780016    -0.22700
C2417       C  0.08489540  0.03875255  0.48778765    -0.05700
H2418       H  0.03350330  0.06209799  0.47117366     0.15000
C2419       C  0.95931577  0.98803852  0.49029208    -0.15900
H2420       H  0.01093887  0.96424054  0.50509447     0.09300
H2421       H  0.14907734  0.91504943  0.48883697     0.07200
H2422       H  0.11954498  0.92120658  0.47147255     0.08400
H2423       H  0.11532059  0.88990819  0.48770880     0.07400
H2424       H  0.03473897  0.99375450  0.53695611     0.02300
H2425       H  0.06514079  0.02242688  0.53418994     0.02800
H2426       H  0.06744150  0.99394168  0.55256723     0.06300
H2427       H  0.08583038  0.06121581  0.48018374     0.05300
H2428       H  0.10077689  0.02229103  0.48065257    -0.00500
H2429       H  0.09314342  0.04271472  0.50234112     0.01000
H2430       H  0.95843333  0.96485300  0.48349909     0.04600
H2431       H  0.94146790  0.00310486  0.48387362     0.06600
H2432       H  0.95319013  0.98548318  0.50533037     0.07400
C2433       C  0.16661058  0.72401677  0.57989791    -0.22200
C2434       C  0.16013492  0.72661818  0.59905938     0.09800
C2435       C  0.15431338  0.75600356  0.60697157     0.10200
C2436       C  0.15418443  0.78221944  0.59536164    -0.17100
C2437       C  0.15927965  0.77965495  0.57595661    -0.27500
C2438       C  0.16613142  0.75015740  0.56816769     0.18500
C2439       C  0.15838783  0.69808521  0.61047988     0.12500
C2440       C  0.14748669  0.75952670  0.62757419    -0.11900
H2441       H  0.14883626  0.80468794  0.60139003     0.12800
C2442       C  0.17331677  0.74596493  0.54764331    -0.22700
H2443       H  0.17134692  0.70127335  0.57405436     0.08400
C2444       C  0.13067293  0.68073490  0.61167043     0.04700
C2445       C  0.12978858  0.65415827  0.62298326    -0.19900
C2446       C  0.15614076  0.64435250  0.63285179    -0.12200
C2447       C  0.18391916  0.66183373  0.63166682     0.13500
C2448       C  0.18465890  0.68857695  0.62046058    -0.22700
C2449       C  0.10206265  0.69038849  0.60105725    -0.05700
H2450       H  0.10853414  0.64076303  0.62398356     0.15000
C2451       C  0.21241019  0.65312951  0.64271894    -0.15900
H2452       H  0.20571740  0.70229081  0.61954859     0.09300
H2453       H  0.18040194  0.72176649  0.54441073     0.07200
H2454       H  0.19265311  0.76160703  0.54353443     0.08400
H2455       H  0.15250058  0.75108836  0.53905807     0.07400
H2456       H  0.16750574  0.75108831  0.63591177     0.02300
H2457       H  0.12655631  0.74579976  0.63129217     0.02800
H2458       H  0.14317153  0.78411856  0.63145477     0.06300
H2459       H  0.08234629  0.67430162  0.60360671     0.05300
H2460       H  0.10698370  0.69050279  0.58578528    -0.00500
H2461       H  0.09491414  0.71402080  0.60550028     0.01000
H2462       H  0.23140535  0.67030916  0.64084865     0.04600
H2463       H  0.22119700  0.63022832  0.63801132     0.06600
H2464       H  0.20669988  0.65210212  0.65787742     0.07400
C2465       C  0.01264559  0.88065220  0.58374458    -0.22200
C2466       C  0.00479473  0.85349983  0.59343435     0.09800
C2467       C  0.02311302  0.82658310  0.59130863     0.10200
C2468       C  0.04953619  0.82771982  0.57990783    -0.17100
C2469       C  0.05801488  0.85516395  0.57074718    -0.27500
C2470       C  0.03905637  0.88178469  0.57230907     0.18500
C2471       C  0.97770560  0.85364332  0.60610391     0.12500
C2472       C  0.01530142  0.79698262  0.60152208    -0.11900
H2473       H  0.06428735  0.80745583  0.57867559     0.12800
C2474       C  0.04585146  0.91146687  0.56195547    -0.22700
H2475       H  0.99823144  0.90110292  0.58524048     0.08400
C2476       C  0.98012731  0.86449465  0.62469317     0.04700
C2477       C  0.95497975  0.86050100  0.63693802    -0.19900
C2478       C  0.92765842  0.84553680  0.63106068    -0.12200
C2479       C  0.92528896  0.83490700  0.61224733     0.13500
C2480       C  0.95012570  0.83989389  0.59994390    -0.22700
C2481       C  0.00965425  0.87918740  0.63175005    -0.05700
H2482       H  0.95701957  0.86817193  0.65136712     0.15000
C2483       C  0.89845135  0.81598874  0.60478873    -0.15900
H2484       H  0.94871851  0.83123229  0.58568293     0.09300
H2485       H  0.05014999  0.93051260  0.57213315     0.07200
H2486       H  0.02567145  0.91769053  0.55305080     0.08400
H2487       H  0.06626524  0.90939783  0.55265898     0.07400
H2488       H  0.99210037  0.78850915  0.59708515     0.02300
H2489       H  0.01515527  0.80128002  0.61686981     0.02800
H2490       H  0.03242554  0.77837915  0.59856467     0.06300
H2491       H  0.00780967  0.88600707  0.64672584     0.05300
H2492       H  0.01491829  0.90033457  0.62345611    -0.00500
H2493       H  0.02914486  0.86253357  0.63035291     0.01000
H2494       H  0.88696925  0.82886679  0.59325010     0.04600
H2495       H  0.88077376  0.81001917  0.61535694     0.06600
H2496       H  0.90729249  0.79363456  0.59916117     0.07400
loop_ 
_geom_bond_atom_site_label_1 
_geom_bond_atom_site_label_2 
_geom_bond_distance 
_geom_bond_site_symmetry_2 
_ccdc_geom_bond_type 
O1            V9   1.898       .  S
O1           C11   1.265       .  A
O2            V9   1.901       .  S
O2           C12   1.263       .  A
O3            V9   1.894       .  S
O3           C13   1.263       .  A
O4            V9   1.894       .  S
O4           C14   1.263       .  A
O5           V10   1.900       .  S
O5           C14   1.265       .  A
O6           V10   1.897       .  S
O6           C13   1.264       .  A
O7           V10   1.894       .  S
O7           C12   1.262       .  A
O8           V10   1.896       .  S
O8           C11   1.263       .  A
V9           V10   2.086       .  T
C11        C2382   1.490       .  S
C12        C2469   1.466       .  S
C13        C2405   1.475       .  S
C14        C2437   1.481       .  S
O15          V23   1.905       .  S
O15          C25   1.266       .  A
O16          V23   1.900       .  S
O16          C26   1.264       .  A
O17          V23   1.893       .  S
O17          C27   1.263       .  A
O18          V23   1.893       .  S
O18          C28   1.263       .  A
O19          V24   1.903       .  S
O19          C28   1.265       .  A
O20          V24   1.902       .  S
O20          C27   1.265       .  A
O21          V24   1.887       .  S
O21          C26   1.261       .  A
O22          V24   1.891       .  S
O22          C25   1.262       .  A
V23          V24   2.088       .  T
C25        C2277   1.472       .  S
C26        C2341   1.463       .  S
C27        C2478   1.476       .  S
C28        C2309   1.474       .  S
O29          V37   1.901       .  S
O29          C39   1.264       .  A
O30          V37   1.900       .  S
O30          C40   1.265       .  A
O31          V37   1.887       .  S
O31          C41   1.262       .  A
O32          V37   1.890       .  S
O32          C42   1.263       .  A
O33          V38   1.906       .  S
O33          C42   1.266       .  A
O34          V38   1.908       .  S
O34          C41   1.266       .  A
O35          V38   1.897       .  S
O35          C40   1.263       .  A
O36          V38   1.903       .  S
O36          C39   1.267       .  A
V37          V38   2.085       .  T
C39        C2181   1.495       .  S
C40        C2446   1.474       .  S
C41        C2245   1.474       .  S
C42        C2222   1.477       .  S
O43          V51   1.898       .  S
O43          C53   1.264       .  A
O44          V51   1.899       .  S
O44          C54   1.263       .  A
O45          V51   1.895       .  S
O45          C55   1.264       .  A
O46          V51   1.894       .  S
O46          C56   1.263       .  A
O47          V52   1.892       .  S
O47          C56   1.263       .  A
O48          V52   1.889       .  S
O48          C55   1.262       .  A
O49          V52   1.898       .  S
O49          C54   1.263       .  A
O50          V52   1.898       .  S
O50          C53   1.264       .  A
V51          V52   2.088       .  T
C53        C2126   1.478       .  S
C54        C2254   1.469       .  S
C55        C2158   1.470       .  S
C56        C2350   1.470       .  S
O57          V65   1.898       .  S
O57          C67   1.265       .  A
O58          V65   1.897       .  S
O58          C68   1.264       .  A
O59          V65   1.895       .  S
O59          C69   1.263       .  A
O60          V65   1.894       .  S
O60          C70   1.263       .  A
O61          V66   1.903       .  S
O61          C70   1.265       .  A
O62          V66   1.902       .  S
O62          C69   1.266       .  A
O63          V66   1.896       .  S
O63          C68   1.263       .  A
O64          V66   1.900       .  S
O64          C67   1.264       .  A
V65          V66   2.086       .  T
C67        C2021   1.484       .  S
C68        C2085   1.473       .  S
C69        C2318   1.483       .  S
C70        C2053   1.479       .  S
O71          V79   1.906       .  S
O71          C81   1.267       .  A
O72          V79   1.902       .  S
O72          C82   1.265       .  A
O73          V79   1.889       .  S
O73          C83   1.261       .  A
O74          V79   1.892       .  S
O74          C84   1.263       .  A
O75          V80   1.902       .  S
O75          C84   1.265       .  A
O76          V80   1.905       .  S
O76          C83   1.267       .  A
O77          V80   1.895       .  S
O77          C82   1.262       .  A
O78          V80   1.896       .  S
O78          C81   1.263       .  A
V79          V80   2.085       .  T
C81        C1925   1.490       .  S
C82        C2062   1.469       .  S
C83        C1998   1.487       .  S
C84        C1957   1.475       .  S
O85          V93   1.902       .  S
O85          C95   1.264       .  A
O86          V93   1.901       .  S
O86          C96   1.265       .  A
O87          V93   1.896       .  S
O87          C97   1.263       .  A
O88          V93   1.892       .  S
O88          C98   1.262       .  A
O89          V94   1.894       .  S
O89          C98   1.264       .  A
O90          V94   1.895       .  S
O90          C97   1.264       .  A
O91          V94   1.895       .  S
O91          C96   1.264       .  A
O92          V94   1.897       .  S
O92          C95   1.265       .  A
V93          V94   2.086       .  T
C95        C1861   1.488       .  S
C96        C1989   1.485       .  S
C97        C2213   1.470       .  S
C98        C1902   1.477       .  S
O99         V107   1.899       .  S
O99         C109   1.264       .  A
O100        V107   1.895       .  S
O100        C110   1.265       .  A
O101        V107   1.888       .  S
O101        C111   1.262       .  A
O102        V107   1.888       .  S
O102        C112   1.262       .  A
O103        V108   1.904       .  S
O103        C112   1.266       .  A
O104        V108   1.906       .  S
O104        C111   1.265       .  A
O105        V108   1.890       .  S
O105        C110   1.261       .  A
O106        V108   1.890       .  S
O106        C109   1.264       .  A
V107        V108   2.085       .  T
C109       C1797   1.488       .  S
C110       C1893   1.471       .  S
C111       C2094   1.479       .  S
C112       C1829   1.483       .  S
O113        V121   1.894       .  S
O113        C123   1.264       .  A
O114        V121   1.896       .  S
O114        C124   1.263       .  A
O115        V121   1.888       .  S
O115        C125   1.262       .  A
O116        V121   1.888       .  S
O116        C126   1.263       .  A
O117        V122   1.906       .  S
O117        C126   1.266       .  A
O118        V122   1.905       .  S
O118        C125   1.265       .  A
O119        V122   1.897       .  S
O119        C124   1.263       .  A
O120        V122   1.900       .  S
O120        C123   1.264       .  A
V121        V122   2.086       .  T
C123       C1701   1.480       .  S
C124       C1774   1.474       .  S
C125       C1966   1.473       .  S
C126       C1733   1.488       .  S
O127        V135   1.902       .  S
O127        C137   1.264       .  A
O128        V135   1.899       .  S
O128        C138   1.266       .  A
O129        V135   1.889       .  S
O129        C139   1.262       .  A
O130        V135   1.890       .  S
O130        C140   1.261       .  A
O131        V136   1.904       .  S
O131        C140   1.265       .  A
O132        V136   1.906       .  S
O132        C139   1.266       .  A
O133        V136   1.893       .  S
O133        C138   1.262       .  A
O134        V136   1.897       .  S
O134        C137   1.265       .  A
V135        V136   2.085       .  T
C137       C1605   1.489       .  S
C138       C1678   1.483       .  S
C139       C1765   1.481       .  S
C140       C1637   1.472       .  S
O141        V149   1.897       .  S
O141        C151   1.264       .  A
O142        V149   1.896       .  S
O142        C152   1.263       .  A
O143        V149   1.890       .  S
O143        C153   1.264       .  A
O144        V149   1.887       .  S
O144        C154   1.262       .  A
O145        V150   1.898       .  S
O145        C154   1.263       .  A
O146        V150   1.897       .  S
O146        C153   1.263       .  A
O147        V150   1.899       .  S
O147        C152   1.265       .  A
O148        V150   1.899       .  S
O148        C151   1.264       .  A
V149        V150   2.086       .  T
C151       C1518   1.473       .  S
C152       C1742   1.487       .  S
C153       C1582   1.485       .  S
C154       C1550   1.469       .  S
O155        V163   1.900       .  S
O155        C165   1.264       .  A
O156        V163   1.903       .  S
O156        C166   1.266       .  A
O157        V163   1.883       .  S
O157        C167   1.261       .  A
O158        V163   1.885       .  S
O158        C168   1.260       .  A
O159        V164   1.906       .  S
O159        C168   1.266       .  A
O160        V164   1.908       .  S
O160        C167   1.265       .  A
O161        V164   1.892       .  S
O161        C166   1.262       .  A
O162        V164   1.897       .  S
O162        C165   1.263       .  A
V163        V164   2.088       .  T
C165       C1486   1.473       .  S
C166       C1573   1.478       .  S
C167       C1838   1.469   1_545  S
C168       C1669   1.475       .  S
O169        V177   1.904       .  S
O169        C179   1.266       .  A
O170        V177   1.899       .  S
O170        C180   1.265       .  A
O171        V177   1.890       .  S
O171        C181   1.262       .  A
O172        V177   1.890       .  S
O172        C182   1.263       .  A
O173        V178   1.900       .  S
O173        C182   1.264       .  A
O174        V178   1.897       .  S
O174        C181   1.264       .  A
O175        V178   1.897       .  S
O175        C180   1.263       .  A
O176        V178   1.897       .  S
O176        C179   1.263       .  A
V177        V178   2.086       .  T
C179       C1381   1.488       .  S
C180       C1445   1.478       .  S
C181       C1541   1.470       .  S
C182       C1413   1.472       .  S
O183        V191   1.899       .  S
O183        C193   1.264       .  A
O184        V191   1.898       .  S
O184        C194   1.264       .  A
O185        V191   1.891       .  S
O185        C195   1.263       .  A
O186        V191   1.892       .  S
O186        C196   1.262       .  A
O187        V192   1.891       .  S
O187        C196   1.262       .  A
O188        V192   1.895       .  S
O188        C195   1.263       .  A
O189        V192   1.894       .  S
O189        C194   1.262       .  A
O190        V192   1.890       .  S
O190        C193   1.264       .  A
V191        V192   2.085       .  T
C193       C1317   1.487       .  S
C194       C1422   1.467       .  S
C195       C1349   1.474       .  S
C196       C2149   1.465       .  S
O197        V205   1.894       .  S
O197        C207   1.262       .  A
O198        V205   1.890       .  S
O198        C208   1.263       .  A
O199        V205   1.894       .  S
O199        C209   1.264       .  A
O200        V205   1.890       .  S
O200        C210   1.263       .  A
O201        V206   1.901       .  S
O201        C210   1.265       .  A
O202        V206   1.899       .  S
O202        C209   1.264       .  A
O203        V206   1.897       .  S
O203        C208   1.262       .  A
O204        V206   1.897       .  S
O204        C207   1.266       .  A
V205        V206   2.085       .  T
C207       C1262   1.487       .  S
C208       C1358   1.467       .  S
C209       C1646   1.487       .  S
C210       C1285   1.475       .  S
O211        V219   1.900       .  S
O211        C221   1.266       .  A
O212        V219   1.898       .  S
O212        C222   1.264       .  A
O213        V219   1.894       .  S
O213        C223   1.264       .  A
O214        V219   1.896       .  S
O214        C224   1.263       .  A
O215        V220   1.894       .  S
O215        C224   1.264       .  A
O216        V220   1.899       .  S
O216        C223   1.263       .  A
O217        V220   1.895       .  S
O217        C222   1.264       .  A
O218        V220   1.894       .  S
O218        C221   1.262       .  A
V219        V220   2.087       .  T
C221       C1221   1.486       .  S
C222       C1294   1.474   1_655  S
C223       C1454   1.479       .  S
C224       C2414   1.470       .  S
O225        V233   1.904       .  S
O225        C235   1.265       .  A
O226        V233   1.900       .  S
O226        C236   1.265       .  A
O227        V233   1.892       .  S
O227        C237   1.262       .  A
O228        V233   1.886       .  S
O228        C238   1.261       .  A
O229        V234   1.907       .  S
O229        C238   1.267       .  A
O230        V234   1.909       .  S
O230        C237   1.266       .  A
O231        V234   1.887       .  S
O231        C236   1.261       .  A
O232        V234   1.896       .  S
O232        C235   1.265       .  A
V233        V234   2.086       .  T
C235       C2030   1.488       .  S
C236       C1189   1.466       .  S
C237       C1125   1.477       .  S
C238       C1157   1.476       .  S
O239        V247   1.895       .  S
O239        C249   1.263       .  A
O240        V247   1.899       .  S
O240        C250   1.264       .  A
O241        V247   1.884       .  S
O241        C251   1.261       .  A
O242        V247   1.883       .  S
O242        C252   1.261       .  A
O243        V248   1.902       .  S
O243        C252   1.265       .  A
O244        V248   1.902       .  S
O244        C251   1.264       .  A
O245        V248   1.895       .  S
O245        C250   1.263       .  A
O246        V248   1.897       .  S
O246        C249   1.264       .  A
V247        V248   2.088       .  T
C249       C1326   1.474       .  S
C250       C1166   1.476       .  S
C251       C1093   1.466       .  S
C252       C1061   1.471       .  S
O253        V261   1.903       .  S
O253        C263   1.267       .  A
O254        V261   1.903       .  S
O254        C264   1.264       .  A
O255        V261   1.884       .  S
O255        C265   1.261       .  A
O256        V261   1.885       .  S
O256        C266   1.262       .  A
O257        V262   1.906       .  S
O257        C266   1.266       .  A
O258        V262   1.902       .  S
O258        C265   1.265       .  A
O259        V262   1.890       .  S
O259        C264   1.261       .  A
O260        V262   1.891       .  S
O260        C263   1.262       .  A
V261        V262   2.085       .  T
C263       C1870   1.486       .  S
C264       C1102   1.466       .  S
C265       C1006   1.472       .  S
C266       C1029   1.484       .  S
O267        V275   1.896       .  S
O267        C277   1.263       .  A
O268        V275   1.898       .  S
O268        C278   1.264       .  A
O269        V275   1.890       .  S
O269        C279   1.262       .  A
O270        V275   1.889       .  S
O270        C280   1.262       .  A
O271        V276   1.899       .  S
O271        C280   1.264       .  A
O272        V276   1.899       .  S
O272        C279   1.264       .  A
O273        V276   1.893       .  S
O273        C278   1.262       .  A
O274        V276   1.898       .  S
O274        C277   1.264       .  A
V275        V276   2.089       .  T
C277       C1230   1.471       .  S
C278       C1038   1.465       .  S
C279       C1198   1.470       .  S
C280        C965   1.472       .  S
O281        V289   1.905       .  S
O281        C291   1.266       .  A
O282        V289   1.905       .  S
O282        C292   1.267       .  A
O283        V289   1.893       .  S
O283        C293   1.263       .  A
O284        V289   1.892       .  S
O284        C294   1.262       .  A
O285        V290   1.895       .  S
O285        C294   1.263       .  A
O286        V290   1.896       .  S
O286        C293   1.264       .  A
O287        V290   1.894       .  S
O287        C292   1.262       .  A
O288        V290   1.897       .  S
O288        C291   1.264       .  A
V289        V290   2.085       .  T
C291       C2190   1.486       .  S
C292        C933   1.491       .  S
C293        C910   1.476       .  S
C294        C997   1.470       .  S
O295        V303   1.899       .  S
O295        C305   1.264       .  A
O296        V303   1.898       .  S
O296        C306   1.264       .  A
O297        V303   1.895       .  S
O297        C307   1.263       .  A
O298        V303   1.891       .  S
O298        C308   1.264       .  A
O299        V304   1.901       .  S
O299        C308   1.265       .  A
O300        V304   1.898       .  S
O300        C307   1.265       .  A
O301        V304   1.891       .  S
O301        C306   1.262       .  A
O302        V304   1.893       .  S
O302        C305   1.263       .  A
V303        V304   2.086       .  T
C305       C1710   1.475       .  S
C306        C901   1.476       .  S
C307        C837   1.482       .  S
C308        C869   1.486       .  S
O309        V317   1.895       .  S
O309        C319   1.263       .  A
O310        V317   1.892       .  S
O310        C320   1.263       .  A
O311        V317   1.894       .  S
O311        C321   1.263       .  A
O312        V317   1.896       .  S
O312        C322   1.263       .  A
O313        V318   1.897       .  S
O313        C322   1.265       .  A
O314        V318   1.901       .  S
O314        C321   1.265       .  A
O315        V318   1.899       .  S
O315        C320   1.264       .  A
O316        V318   1.903       .  S
O316        C319   1.266       .  A
V317        V318   2.085       .  T
C319       C2286   1.487       .  S
C320        C878   1.479       .  S
C321        C814   1.484       .  S
C322       C1134   1.481       .  S
O323        V331   1.905       .  S
O323        C333   1.265       .  A
O324        V331   1.905   1_655  S
O324        C334   1.266       .  A
O325        V331   1.889       .  S
O325        C335   1.261       .  A
O326        V331   1.885       .  S
O326        C336   1.260       .  A
O327        V332   1.909       .  S
O327        C336   1.268       .  A
O328        V332   1.904       .  S
O328        C335   1.267       .  A
O329        V332   1.891       .  S
O329        C334   1.263   1_455  A
O330        V332   1.895       .  S
O330        C333   1.262       .  A
V331        V332   2.084       .  T
C333       C1477   1.474       .  S
C334        C805   1.487       .  S
C335        C782   1.488   1_455  S
C336        C942   1.491       .  S
O337        V345   1.894       .  S
O337        C347   1.263       .  A
O338        V345   1.894       .  S
O338        C348   1.263       .  A
O339        V345   1.891       .  S
O339        C349   1.262       .  A
O340        V345   1.895       .  S
O340        C350   1.263       .  A
O341        V346   1.897       .  S
O341        C350   1.264       .  A
O342        V346   1.896       .  S
O342        C349   1.264       .  A
O343        V346   1.902       .  S
O343        C348   1.265       .  A
O344        V346   1.905       .  S
O344        C347   1.266       .  A
V345        V346   2.088       .  T
C347       C1614   1.479       .  S
C348        C741   1.475       .  S
C349        C718   1.476       .  S
C350        C677   1.470       .  S
O351        V359   1.897       .  S
O351        C361   1.263       .  A
O352        V359   1.895       .  S
O352        C362   1.263       .  A
O353        V359   1.895       .  S
O353        C363   1.263       .  A
O354        V359   1.894       .  S
O354        C364   1.264       .  A
O355        V360   1.897       .  S
O355        C364   1.264       .  A
O356        V360   1.893       .  S
O356        C363   1.263       .  A
O357        V360   1.893       .  S
O357        C362   1.262       .  A
O358        V360   1.895       .  S
O358        C361   1.263       .  A
V359        V360   2.088       .  T
C361       C2117   1.470       .  S
C362        C709   1.471       .  S
C363       C1070   1.466       .  S
C364        C645   1.483       .  S
O365        V373   1.898       .  S
O365        C375   1.264       .  A
O366        V373   1.896       .  S
O366        C376   1.264       .  A
O367        V373   1.890       .  S
O367        C377   1.262       .  A
O368        V373   1.889       .  S
O368        C378   1.262       .  A
O369        V374   1.905       .  S
O369        C378   1.265       .  A
O370        V374   1.902       .  S
O370        C377   1.266       .  A
O371        V374   1.890       .  S
O371        C376   1.261       .  A
O372        V374   1.894       .  S
O372        C375   1.265       .  A
V373        V374   2.085       .  T
C375       C2373   1.487       .  S
C376        C613   1.464       .  S
C377        C974   1.478       .  S
C378        C750   1.477       .  S
O379        V387   1.898       .  S
O379        C389   1.264       .  A
O380        V387   1.897       .  S
O380        C390   1.264       .  A
O381        V387   1.885       .  S
O381        C391   1.261       .  A
O382        V387   1.889       .  S
O382        C392   1.262       .  A
O383        V388   1.898       .  S
O383        C392   1.264       .  A
O384        V388   1.900       .  S
O384        C391   1.264       .  A
O385        V388   1.898       .  S
O385        C390   1.264       .  A
O386        V388   1.898       .  S
O386        C389   1.265       .  A
V387        V388   2.087       .  T
C389       C1509   1.486       .  S
C390        C654   1.478       .  S
C391        C622   1.467       .  S
C392        C581   1.469       .  S
O393        V401   1.898       .  S
O393        C403   1.265       .  A
O394        V401   1.900       .  S
O394        C404   1.264       .  A
O395        V401   1.890       .  S
O395        C405   1.263       .  A
O396        V401   1.890       .  S
O396        C406   1.261       .  A
O397        V402   1.903       .  S
O397        C406   1.264       .  A
O398        V402   1.900       .  S
O398        C405   1.265       .  A
O399        V402   1.889       .  S
O399        C404   1.262       .  A
O400        V402   1.894       .  S
O400        C403   1.263       .  A
V401        V402   2.088       .  T
C403       C1253   1.481       .  S
C404        C549   1.467       .  S
C405        C686   1.477       .  S
C406        C517   1.465       .  S
O407        V415   1.896       .  S
O407        C417   1.263       .  A
O408        V415   1.897       .  S
O408        C418   1.263       .  A
O409        V415   1.898       .  S
O409        C419   1.266       .  A
O410        V415   1.894       .  S
O410        C420   1.263       .  A
O411        V416   1.901       .  S
O411        C420   1.264       .  A
O412        V416   1.901       .  S
O412        C419   1.265       .  A
O413        V416   1.891       .  S
O413        C418   1.262       .  A
O414        V416   1.897       .  S
O414        C417   1.265       .  A
V415        V416   2.085       .  T
C417       C1806   1.485       .  S
C418        C526   1.466       .  S
C419        C485   1.495       .  S
C420        C773   1.473       .  S
O421        V429   1.903       .  S
O421        C431   1.266       .  A
O422        V429   1.900       .  S
O422        C432   1.265       .  A
O423        V429   1.885       .  S
O423        C433   1.262       .  A
O424        V429   1.886       .  S
O424        C434   1.261       .  A
O425        V430   1.905       .  S
O425        C434   1.265       .  A
O426        V430   1.904       .  S
O426        C433   1.265       .  A
O427        V430   1.893       .  S
O427        C432   1.262       .  A
O428        V430   1.897       .  S
O428        C431   1.263       .  A
V429        V430   2.087       .  T
C431       C1934   1.482       .  S
C432        C453   1.477       .  S
C433        C558   1.471       .  S
C434        C846   1.470       .  S
O435        V443   1.903       .  S
O435        C445   1.265       .  A
O436        V443   1.904       .  S
O436        C446   1.267       .  A
O437        V443   1.889       .  S
O437        C447   1.262       .  A
O438        V443   1.889       .  S
O438        C448   1.262       .  A
O439        V444   1.901       .  S
O439        C448   1.265       .  A
O440        V444   1.898       .  S
O440        C447   1.264       .  A
O441        V444   1.900       .  S
O441        C446   1.264       .  A
O442        V444   1.901       .  S
O442        C445   1.266       .  A
V443        V444   2.085       .  T
C445       C1390   1.492       .  S
C446        C494   1.492       .  S
C447        C590   1.474       .  S
C448        C462   1.477       .  S
C449        C450   1.398       .  A
C449        C454   1.403       .  A
C449        H459   1.084       .  S
C450        C455   1.474       .  S
C450        C451   1.410       .  A
C451        C452   1.400       .  A
C451        C456   1.508       .  S
C452        C453   1.403   1_655  A
C452        H457   1.084   1_655  S
C453        C454   1.418   1_455  A
C454        C458   1.508   1_655  S
C455        C460   1.408       .  A
C455        C464   1.398       .  A
C456        H472   1.110       .  S
C456        H473   1.110       .  S
C456        H474   1.111       .  S
C458        H469   1.111       .  S
C458        H470   1.111   1_455  S
C458        H471   1.109       .  S
C460        C461   1.402       .  A
C460        C465   1.506       .  S
C461        C462   1.406       .  A
C461        H466   1.084       .  S
C462        C463   1.417       .  A
C463        C464   1.400       .  A
C463        C467   1.508       .  S
C464        H468   1.084       .  S
C465        H475   1.111       .  S
C465        H476   1.110       .  S
C465        H477   1.110       .  S
C467        H478   1.110       .  S
C467        H479   1.108       .  S
C467        H480   1.111       .  S
C481        C482   1.399       .  A
C481        C486   1.407       .  A
C481        H491   1.084       .  S
C482        C487   1.482       .  S
C482        C483   1.408       .  A
C483        C484   1.403       .  A
C483        C488   1.507       .  S
C484        C485   1.410       .  A
C484        H489   1.083       .  S
C485        C486   1.423       .  A
C486        C490   1.508       .  S
C487        C492   1.409       .  A
C487        C496   1.399       .  A
C488        H504   1.110       .  S
C488        H505   1.110       .  S
C488        H506   1.111       .  S
C490        H501   1.111       .  S
C490        H502   1.110       .  S
C490        H503   1.110       .  S
C492        C493   1.403       .  A
C492        C497   1.507       .  S
C493        C494   1.408       .  A
C493        H498   1.084       .  S
C494        C495   1.423       .  A
C495        C496   1.407       .  A
C495        C499   1.508       .  S
C496        H500   1.084       .  S
C497        H507   1.111       .  S
C497        H508   1.110       .  S
C497        H509   1.110       .  S
C499        H510   1.111       .  S
C499        H511   1.111       .  S
C499        H512   1.109       .  S
C513        C514   1.400       .  A
C513        C518   1.400       .  A
C513        H523   1.085       .  S
C514        C519   1.474   1_455  S
C514        C515   1.410       .  A
C515        C516   1.402       .  A
C515        C520   1.506   1_455  S
C516        C517   1.401       .  A
C516        H521   1.084       .  S
C517        C518   1.414       .  A
C518        C522   1.508       .  S
C519        C524   1.409       .  A
C519        C528   1.401       .  A
C520        H536   1.110       .  S
C520        H537   1.110       .  S
C520        H538   1.111   1_655  S
C522        H533   1.110       .  S
C522        H534   1.111       .  S
C522        H535   1.106       .  S
C524        C525   1.402       .  A
C524        C529   1.506   1_655  S
C525        C526   1.404       .  A
C525        H530   1.084       .  S
C526        C527   1.414       .  A
C527        C528   1.399       .  A
C527        C531   1.510       .  S
C528        H532   1.085       .  S
C529        H539   1.111   1_455  S
C529        H540   1.110       .  S
C529        H541   1.110       .  S
C531        H542   1.111       .  S
C531        H543   1.107       .  S
C531        H544   1.110       .  S
C545        C546   1.400       .  A
C545        C550   1.400       .  A
C545        H555   1.084       .  S
C546        C551   1.476       .  S
C546        C547   1.413       .  A
C547        C548   1.400       .  A
C547        C552   1.508       .  S
C548        C549   1.400       .  A
C548        H553   1.084       .  S
C549        C550   1.416       .  A
C550        C554   1.509       .  S
C551        C556   1.410       .  A
C551        C560   1.399       .  A
C552        H568   1.110       .  S
C552        H569   1.110       .  S
C552        H570   1.111       .  S
C554        H565   1.110       .  S
C554        H566   1.111       .  S
C554        H567   1.108       .  S
C556        C557   1.399       .  A
C556        C561   1.508       .  S
C557        C558   1.403       .  A
C557        H562   1.085       .  S
C558        C559   1.420       .  A
C559        C560   1.402       .  A
C559        C563   1.509       .  S
C560        H564   1.085       .  S
C561        H571   1.111       .  S
C561        H572   1.110       .  S
C561        H573   1.111       .  S
C563        H574   1.110       .  S
C563        H575   1.103       .  S
C563        H576   1.111       .  S
C577        C578   1.403       .  A
C577        C582   1.402       .  A
C577        H587   1.085       .  S
C578        C583   1.472       .  S
C578        C579   1.407       .  A
C579        C580   1.399       .  A
C579        C584   1.507       .  S
C580        C581   1.405       .  A
C580        H585   1.085       .  S
C581        C582   1.413       .  A
C582        C586   1.507       .  S
C583        C588   1.407       .  A
C583        C592   1.400       .  A
C584        H600   1.110       .  S
C584        H601   1.109       .  S
C584        H602   1.111       .  S
C586        H597   1.111       .  S
C586        H598   1.110       .  S
C586        H599   1.108       .  S
C588        C589   1.401       .  A
C588        C593   1.507       .  S
C589        C590   1.406       .  A
C589        H594   1.084       .  S
C590        C591   1.416       .  A
C591        C592   1.400       .  A
C591        C595   1.508       .  S
C592        H596   1.085       .  S
C593        H603   1.111       .  S
C593        H604   1.110       .  S
C593        H605   1.109       .  S
C595        H606   1.110       .  S
C595        H607   1.108       .  S
C595        H608   1.111       .  S
C609        C610   1.400       .  A
C609        C614   1.402       .  A
C609        H619   1.084       .  S
C610        C615   1.471       .  S
C610        C611   1.411       .  A
C611        C612   1.397       .  A
C611        C616   1.509       .  S
C612        C613   1.400       .  A
C612        H617   1.085       .  S
C613        C614   1.415       .  A
C614        C618   1.508       .  S
C615        C620   1.408       .  A
C615        C624   1.397       .  A
C616        H632   1.110       .  S
C616        H633   1.110       .  S
C616        H634   1.111       .  S
C618        H629   1.110       .  S
C618        H630   1.111       .  S
C618        H631   1.108       .  S
C620        C621   1.401       .  A
C620        C625   1.506       .  S
C621        C622   1.404       .  A
C621        H626   1.085       .  S
C622        C623   1.420       .  A
C623        C624   1.398       .  A
C623        C627   1.510       .  S
C624        H628   1.085       .  S
C625        H635   1.111       .  S
C625        H636   1.110       .  S
C625        H637   1.110       .  S
C627        H638   1.110       .  S
C627        H639   1.102       .  S
C627        H640   1.111       .  S
C641        C642   1.399       .  A
C641        C646   1.403       .  A
C641        H651   1.084       .  S
C642        C647   1.479       .  S
C642        C643   1.410       .  A
C643        C644   1.402       .  A
C643        C648   1.507       .  S
C644        C645   1.406       .  A
C644        H649   1.084       .  S
C645        C646   1.420       .  A
C646        C650   1.508       .  S
C647        C652   1.409       .  A
C647        C656   1.400       .  A
C648        H664   1.110       .  S
C648        H665   1.110       .  S
C648        H666   1.111       .  S
C650        H661   1.111       .  S
C650        H662   1.111       .  S
C650        H663   1.110       .  S
C652        C653   1.404       .  A
C652        C657   1.506       .  S
C653        C654   1.406       .  A
C653        H658   1.084       .  S
C654        C655   1.417       .  A
C655        C656   1.401       .  A
C655        C659   1.509       .  S
C656        H660   1.084       .  S
C657        H667   1.111       .  S
C657        H668   1.110       .  S
C657        H669   1.110       .  S
C659        H670   1.111       .  S
C659        H671   1.109       .  S
C659        H672   1.110       .  S
C673        C674   1.398       .  A
C673        C678   1.400       .  A
C673        H683   1.085       .  S
C674        C679   1.475       .  S
C674        C675   1.410       .  A
C675        C676   1.403       .  A
C675        C680   1.506       .  S
C676        C677   1.403       .  A
C676        H681   1.084       .  S
C677        C678   1.418       .  A
C678        C682   1.509       .  S
C679        C684   1.407       .  A
C679        C688   1.401       .  A
C680        H696   1.110       .  S
C680        H697   1.110       .  S
C680        H698   1.111       .  S
C682        H693   1.110       .  S
C682        H694   1.111       .  S
C682        H695   1.105       .  S
C684        C685   1.398       .  A
C684        C689   1.507       .  S
C685        C686   1.406       .  A
C685        H690   1.084       .  S
C686        C687   1.418       .  A
C687        C688   1.404       .  A
C687        C691   1.507       .  S
C688        H692   1.084       .  S
C689        H699   1.111       .  S
C689        H700   1.110       .  S
C689        H701   1.110       .  S
C691        H702   1.111       .  S
C691        H703   1.106       .  S
C691        H704   1.110       .  S
C705        C706   1.400       .  A
C705        C710   1.399       .  A
C705        H715   1.085       .  S
C706        C711   1.473       .  S
C706        C707   1.408       .  A
C707        C708   1.402       .  A
C707        C712   1.506       .  S
C708        C709   1.405       .  A
C708        H713   1.084       .  S
C709        C710   1.414       .  A
C710        C714   1.509       .  S
C711        C716   1.408       .  A
C711        C720   1.399       .  A
C712        H728   1.110       .  S
C712        H729   1.110       .  S
C712        H730   1.111       .  S
C714        H725   1.111       .  S
C714        H726   1.111       .  S
C714        H727   1.109       .  S
C716        C717   1.400       .  A
C716        C721   1.507       .  S
C717        C718   1.405       .  A
C717        H722   1.084       .  S
C718        C719   1.417       .  A
C719        C720   1.402       .  A
C719        C723   1.508       .  S
C720        H724   1.084       .  S
C721        H731   1.111       .  S
C721        H732   1.110       .  S
C721        H733   1.110       .  S
C723        H734   1.111       .  S
C723        H735   1.109       .  S
C723        H736   1.111       .  S
C737        C738   1.399       .  A
C737        C742   1.401       .  A
C737        H747   1.084       .  S
C738        C743   1.477       .  S
C738        C739   1.410       .  A
C739        C740   1.405       .  A
C739        C744   1.506       .  S
C740        C741   1.404       .  A
C740        H745   1.083       .  S
C741        C742   1.416       .  A
C742        C746   1.509       .  S
C743        C748   1.410       .  A
C743        C752   1.401       .  A
C744        H760   1.110       .  S
C744        H761   1.109       .  S
C744        H762   1.111       .  S
C746        H757   1.111       .  S
C746        H758   1.109       .  S
C746        H759   1.111       .  S
C748        C749   1.400       .  A
C748        C753   1.508       .  S
C749        C750   1.404       .  A
C749        H754   1.084       .  S
C750        C751   1.417       .  A
C751        C752   1.405       .  A
C751        C755   1.508       .  S
C752        H756   1.084       .  S
C753        H763   1.111       .  S
C753        H764   1.110       .  S
C753        H765   1.109       .  S
C755        H766   1.111       .  S
C755        H767   1.111       .  S
C755        H768   1.110       .  S
C769        C770   1.401   1_556  A
C769        C774   1.402   1_556  A
C769        H779   1.085       .  S
C770        C775   1.477       .  S
C770        C771   1.409       .  A
C771        C772   1.402       .  A
C771        C776   1.506       .  S
C772        C773   1.405       .  A
C772        H777   1.084       .  S
C773        C774   1.414       .  A
C774        C778   1.507   1_554  S
C775        C780   1.409   1_554  A
C775        C784   1.397   1_564  A
C776        H792   1.110   1_565  S
C776        H793   1.110       .  S
C776        H794   1.111       .  S
C778        H789   1.110       .  S
C778        H790   1.111       .  S
C778        H791   1.108   1_556  S
C780        C781   1.402       .  A
C780        C785   1.507       .  S
C781        C782   1.407   1_565  A
C781        H786   1.084   1_655  S
C782        C783   1.425       .  A
C783        C784   1.403       .  A
C783        C787   1.509       .  S
C784        H788   1.084   1_556  S
C785        H795   1.111       .  S
C785        H796   1.110       .  S
C785        H797   1.110   1_556  S
C787        H798   1.111       .  S
C787        H799   1.110       .  S
C787        H800   1.110       .  S
C801        C802   1.401       .  A
C801        C806   1.404       .  A
C801        H811   1.084       .  S
C802        C807   1.480       .  S
C802        C803   1.407       .  A
C803        C804   1.402       .  A
C803        C808   1.506       .  S
C804        C805   1.409       .  A
C804        H809   1.084       .  S
C805        C806   1.419       .  A
C806        C810   1.508       .  S
C807        C812   1.408       .  A
C807        C816   1.400       .  A
C808        H824   1.110       .  S
C808        H825   1.110   1_545  S
C808        H826   1.111   1_545  S
C810        H821   1.110       .  S
C810        H822   1.111       .  S
C810        H823   1.111       .  S
C812        C813   1.404       .  A
C812        C817   1.506       .  S
C813        C814   1.408       .  A
C813        H818   1.084       .  S
C814        C815   1.418       .  A
C815        C816   1.402       .  A
C815        C819   1.508       .  S
C816        H820   1.084       .  S
C817        H827   1.111       .  S
C817        H828   1.110       .  S
C817        H829   1.110       .  S
C819        H830   1.109       .  S
C819        H831   1.110       .  S
C819        H832   1.111       .  S
C833        C834   1.399       .  A
C833        C838   1.404       .  A
C833        H843   1.084   1_556  S
C834        C839   1.476   1_655  S
C834        C835   1.408       .  A
C835        C836   1.401       .  A
C835        C840   1.507       .  S
C836        C837   1.406       .  A
C836        H841   1.084       .  S
C837        C838   1.419       .  A
C838        C842   1.508       .  S
C839        C844   1.408   1_456  A
C839        C848   1.403       .  A
C840        H856   1.110   1_655  S
C840        H857   1.110       .  S
C840        H858   1.111       .  S
C842        H853   1.111   1_556  S
C842        H854   1.109       .  S
C842        H855   1.111       .  S
C844        C845   1.398   1_655  A
C844        C849   1.508       .  S
C845        C846   1.404       .  A
C845        H850   1.085       .  S
C846        C847   1.413   1_554  A
C847        C848   1.405       .  A
C847        C851   1.506       .  S
C848        H852   1.084       .  S
C849        H859   1.111       .  S
C849        H860   1.110       .  S
C849        H861   1.110   1_554  S
C851        H862   1.110   1_556  S
C851        H863   1.108   1_556  S
C851        H864   1.111       .  S
C865        C866   1.398       .  A
C865        C870   1.405       .  A
C865        H875   1.084       .  S
C866        C871   1.475       .  S
C866        C867   1.408       .  A
C867        C868   1.400       .  A
C867        C872   1.508       .  S
C868        C869   1.408       .  A
C868        H873   1.084       .  S
C869        C870   1.421       .  A
C870        C874   1.507       .  S
C871        C876   1.407       .  A
C871        C880   1.399       .  A
C872        H888   1.110       .  S
C872        H889   1.110       .  S
C872        H890   1.111       .  S
C874        H885   1.111       .  S
C874        H886   1.110       .  S
C874        H887   1.110       .  S
C876        C877   1.404       .  A
C876        C881   1.505       .  S
C877        C878   1.408       .  A
C877        H882   1.084       .  S
C878        C879   1.418       .  A
C879        C880   1.399       .  A
C879        C883   1.509       .  S
C880        H884   1.085       .  S
C881        H891   1.111       .  S
C881        H892   1.110       .  S
C881        H893   1.110       .  S
C883        H894   1.111       .  S
C883        H895   1.110       .  S
C883        H896   1.111       .  S
C897        C898   1.400   1_655  A
C897        C902   1.401       .  A
C897        H907   1.084       .  S
C898        C903   1.473       .  S
C898        C899   1.407   1_455  A
C899        C900   1.401       .  A
C899        C904   1.506   1_655  S
C900        C901   1.406       .  A
C900        H905   1.084       .  S
C901        C902   1.416       .  A
C902        C906   1.508       .  S
C903        C908   1.407       .  A
C903        C912   1.399       .  A
C904        H920   1.110       .  S
C904        H921   1.110       .  S
C904        H922   1.111   1_455  S
C906        H917   1.109       .  S
C906        H918   1.111       .  S
C906        H919   1.111       .  S
C908        C909   1.400       .  A
C908        C913   1.507       .  S
C909        C910   1.406       .  A
C909        H914   1.084       .  S
C910        C911   1.418       .  A
C911        C912   1.401       .  A
C911        C915   1.508       .  S
C912        H916   1.085   1_455  S
C913        H923   1.111       .  S
C913        H924   1.110       .  S
C913        H925   1.110       .  S
C915        H926   1.110       .  S
C915        H927   1.107       .  S
C915        H928   1.111       .  S
C929        C930   1.397       .  A
C929        C934   1.403       .  A
C929        H939   1.084       .  S
C930        C935   1.478       .  S
C930        C931   1.409       .  A
C931        C932   1.403       .  A
C931        C936   1.508       .  S
C932        C933   1.409       .  A
C932        H937   1.084       .  S
C933        C934   1.424       .  A
C934        C938   1.508       .  S
C935        C940   1.408       .  A
C935        C944   1.396       .  A
C936        H952   1.110       .  S
C936        H953   1.109       .  S
C936        H954   1.111       .  S
C938        H949   1.111       .  S
C938        H950   1.110       .  S
C938        H951   1.108       .  S
C940        C941   1.407       .  A
C940        C945   1.506       .  S
C941        C942   1.411       .  A
C941        H946   1.083       .  S
C942        C943   1.424       .  A
C943        C944   1.399       .  A
C943        C947   1.510       .  S
C944        H948   1.085       .  S
C945        H955   1.111       .  S
C945        H956   1.110       .  S
C945        H957   1.109       .  S
C947        H958   1.110       .  S
C947        H959   1.110       .  S
C947        H960   1.111       .  S
C961        C962   1.400       .  A
C961        C966   1.401   1_565  A
C961        H971   1.084       .  S
C962        C967   1.474       .  S
C962        C963   1.409       .  A
C963        C964   1.402       .  A
C963        C968   1.506       .  S
C964        C965   1.405   1_565  A
C964        H969   1.084       .  S
C965        C966   1.414       .  A
C966        C970   1.508       .  S
C967        C972   1.411       .  A
C967        C976   1.397       .  A
C968        H984   1.110       .  S
C968        H985   1.109       .  S
C968        H986   1.111       .  S
C970        H981   1.111       .  S
C970        H982   1.111       .  S
C970        H983   1.109       .  S
C972        C973   1.403       .  A
C972        C977   1.507       .  S
C973        C974   1.404       .  A
C973        H978   1.084       .  S
C974        C975   1.420       .  A
C975        C976   1.401       .  A
C975        C979   1.509       .  S
C976        H980   1.084       .  S
C977        H987   1.111       .  S
C977        H988   1.110   1_565  S
C977        H989   1.109       .  S
C979        H990   1.111       .  S
C979        H991   1.111       .  S
C979        H992   1.109       .  S
C993        C994   1.399       .  A
C993        C998   1.400       .  A
C993       H1003   1.084       .  S
C994        C999   1.472       .  S
C994        C995   1.409       .  A
C995        C996   1.401       .  A
C995       C1000   1.506       .  S
C996        C997   1.403       .  A
C996       H1001   1.084       .  S
C997        C998   1.415       .  A
C998       C1002   1.507       .  S
C999       C1004   1.408       .  A
C999       C1008   1.402       .  A
C1000      H1016   1.110       .  S
C1000      H1017   1.111       .  S
C1000      H1018   1.111       .  S
C1002      H1013   1.111       .  S
C1002      H1014   1.110       .  S
C1002      H1015   1.109       .  S
C1004      C1005   1.395       .  A
C1004      C1009   1.508       .  S
C1005      C1006   1.404       .  A
C1005      H1010   1.084       .  S
C1006      C1007   1.413       .  A
C1007      C1008   1.405       .  A
C1007      C1011   1.506       .  S
C1008      H1012   1.084       .  S
C1009      H1019   1.111       .  S
C1009      H1020   1.110       .  S
C1009      H1021   1.110       .  S
C1011      H1022   1.111       .  S
C1011      H1023   1.110       .  S
C1011      H1024   1.109       .  S
C1025      C1026   1.400       .  A
C1025      C1030   1.406       .  A
C1025      H1035   1.084       .  S
C1026      C1031   1.476       .  S
C1026      C1027   1.407       .  A
C1027      C1028   1.398       .  A
C1027      C1032   1.508       .  S
C1028      C1029   1.407       .  A
C1028      H1033   1.084       .  S
C1029      C1030   1.419       .  A
C1030      C1034   1.507       .  S
C1031      C1036   1.409       .  A
C1031      C1040   1.402       .  A
C1032      H1048   1.110       .  S
C1032      H1049   1.110       .  S
C1032      H1050   1.111       .  S
C1034      H1045   1.110       .  S
C1034      H1046   1.111       .  S
C1034      H1047   1.110       .  S
C1036      C1037   1.402       .  A
C1036      C1041   1.506       .  S
C1037      C1038   1.403       .  A
C1037      H1042   1.085       .  S
C1038      C1039   1.413       .  A
C1039      C1040   1.400       .  A
C1039      C1043   1.509       .  S
C1040      H1044   1.085       .  S
C1041      H1051   1.111   1_545  S
C1041      H1052   1.110       .  S
C1041      H1053   1.110       .  S
C1043      H1054   1.110       .  S
C1043      H1055   1.107       .  S
C1043      H1056   1.111       .  S
C1057      C1058   1.402       .  A
C1057      C1062   1.404       .  A
C1057      H1067   1.084       .  S
C1058      C1063   1.472       .  S
C1058      C1059   1.407       .  A
C1059      C1060   1.395       .  A
C1059      C1064   1.508       .  S
C1060      C1061   1.405       .  A
C1060      H1065   1.084       .  S
C1061      C1062   1.415       .  A
C1062      C1066   1.507       .  S
C1063      C1068   1.408       .  A
C1063      C1072   1.401       .  A
C1064      H1080   1.110       .  S
C1064      H1081   1.110       .  S
C1064      H1082   1.111       .  S
C1066      H1077   1.111       .  S
C1066      H1078   1.110       .  S
C1066      H1079   1.107       .  S
C1068      C1069   1.399       .  A
C1068      C1073   1.507       .  S
C1069      C1070   1.403       .  A
C1069      H1074   1.085       .  S
C1070      C1071   1.413       .  A
C1071      C1072   1.401       .  A
C1071      C1075   1.508       .  S
C1072      H1076   1.085       .  S
C1073      H1083   1.111       .  S
C1073      H1084   1.110       .  S
C1073      H1085   1.110       .  S
C1075      H1086   1.110       .  S
C1075      H1087   1.108       .  S
C1075      H1088   1.111       .  S
C1089      C1090   1.400       .  A
C1089      C1094   1.401       .  A
C1089      H1099   1.085       .  S
C1090      C1095   1.474       .  S
C1090      C1091   1.409       .  A
C1091      C1092   1.399       .  A
C1091      C1096   1.507       .  S
C1092      C1093   1.402       .  A
C1092      H1097   1.085       .  S
C1093      C1094   1.417       .  A
C1094      C1098   1.509       .  S
C1095      C1100   1.413       .  A
C1095      C1104   1.399       .  A
C1096      H1112   1.110       .  S
C1096      H1113   1.110       .  S
C1096      H1114   1.111       .  S
C1098      H1109   1.111       .  S
C1098      H1110   1.110       .  S
C1098      H1111   1.105       .  S
C1100      C1101   1.401       .  A
C1100      C1105   1.508       .  S
C1101      C1102   1.399       .  A
C1101      H1106   1.084       .  S
C1102      C1103   1.416       .  A
C1103      C1104   1.401       .  A
C1103      C1107   1.508       .  S
C1104      H1108   1.084       .  S
C1105      H1115   1.111       .  S
C1105      H1116   1.110       .  S
C1105      H1117   1.110       .  S
C1107      H1118   1.111       .  S
C1107      H1119   1.106       .  S
C1107      H1120   1.110       .  S
C1121      C1122   1.394       .  A
C1121      C1126   1.396       .  A
C1121      H1131   1.085       .  S
C1122      C1127   1.478       .  S
C1122      C1123   1.411       .  A
C1123      C1124   1.408       .  A
C1123      C1128   1.505       .  S
C1124      C1125   1.404       .  A
C1124      H1129   1.084       .  S
C1125      C1126   1.422       .  A
C1126      C1130   1.508       .  S
C1127      C1132   1.409       .  A
C1127      C1136   1.401       .  A
C1128      H1144   1.110       .  S
C1128      H1145   1.110       .  S
C1128      H1146   1.111       .  S
C1130      H1141   1.110       .  S
C1130      H1142   1.111       .  S
C1130      H1143   1.099       .  S
C1132      C1133   1.399       .  A
C1132      C1137   1.508       .  S
C1133      C1134   1.405       .  A
C1133      H1138   1.084       .  S
C1134      C1135   1.418       .  A
C1135      C1136   1.407       .  A
C1135      C1139   1.507       .  S
C1136      H1140   1.084       .  S
C1137      H1147   1.111       .  S
C1137      H1148   1.110       .  S
C1137      H1149   1.110       .  S
C1139      H1150   1.111       .  S
C1139      H1151   1.110       .  S
C1139      H1152   1.109       .  S
C1153      C1154   1.399       .  A
C1153      C1158   1.400       .  A
C1153      H1163   1.085       .  S
C1154      C1159   1.477       .  S
C1154      C1155   1.410       .  A
C1155      C1156   1.404       .  A
C1155      C1160   1.507       .  S
C1156      C1157   1.406       .  A
C1156      H1161   1.084       .  S
C1157      C1158   1.416       .  A
C1158      C1162   1.506       .  S
C1159      C1164   1.411       .  A
C1159      C1168   1.399       .  A
C1160      H1176   1.110       .  S
C1160      H1177   1.109       .  S
C1160      H1178   1.111       .  S
C1162      H1173   1.110       .  S
C1162      H1174   1.111       .  S
C1162      H1175   1.108       .  S
C1164      C1165   1.402       .  A
C1164      C1169   1.508       .  S
C1165      C1166   1.404       .  A
C1165      H1170   1.084       .  S
C1166      C1167   1.419       .  A
C1167      C1168   1.402       .  A
C1167      C1171   1.509       .  S
C1168      H1172   1.085       .  S
C1169      H1179   1.111       .  S
C1169      H1180   1.110       .  S
C1169      H1181   1.109       .  S
C1171      H1182   1.110       .  S
C1171      H1183   1.106       .  S
C1171      H1184   1.111       .  S
C1185      C1186   1.403       .  A
C1185      C1190   1.402       .  A
C1185      H1195   1.085       .  S
C1186      C1191   1.473       .  S
C1186      C1187   1.407       .  A
C1187      C1188   1.398       .  A
C1187      C1192   1.507       .  S
C1188      C1189   1.404       .  A
C1188      H1193   1.085       .  S
C1189      C1190   1.413       .  A
C1190      C1194   1.508       .  S
C1191      C1196   1.409       .  A
C1191      C1200   1.400       .  A
C1192      H1208   1.110       .  S
C1192      H1209   1.110       .  S
C1192      H1210   1.111       .  S
C1194      H1205   1.110       .  S
C1194      H1206   1.111       .  S
C1194      H1207   1.108       .  S
C1196      C1197   1.400       .  A
C1196      C1201   1.507       .  S
C1197      C1198   1.404       .  A
C1197      H1202   1.084       .  S
C1198      C1199   1.414       .  A
C1199      C1200   1.400       .  A
C1199      C1203   1.507       .  S
C1200      H1204   1.085       .  S
C1201      H1211   1.111       .  S
C1201      H1212   1.110       .  S
C1201      H1213   1.110       .  S
C1203      H1214   1.110       .  S
C1203      H1215   1.108       .  S
C1203      H1216   1.111       .  S
C1217      C1218   1.399       .  A
C1217      C1222   1.404       .  A
C1217      H1227   1.084       .  S
C1218      C1223   1.479       .  S
C1218      C1219   1.409       .  A
C1219      C1220   1.401       .  A
C1219      C1224   1.507       .  S
C1220      C1221   1.407       .  A
C1220      H1225   1.084       .  S
C1221      C1222   1.421       .  A
C1222      C1226   1.508       .  S
C1223      C1228   1.411       .  A
C1223      C1232   1.401       .  A
C1224      H1240   1.110       .  S
C1224      H1241   1.110       .  S
C1224      H1242   1.111       .  S
C1226      H1237   1.111   1_545  S
C1226      H1238   1.109       .  S
C1226      H1239   1.109       .  S
C1228      C1229   1.402       .  A
C1228      C1233   1.507       .  S
C1229      C1230   1.403       .  A
C1229      H1234   1.084       .  S
C1230      C1231   1.415       .  A
C1231      C1232   1.401       .  A
C1231      C1235   1.508       .  S
C1232      H1236   1.085       .  S
C1233      H1243   1.111       .  S
C1233      H1244   1.110       .  S
C1233      H1245   1.110       .  S
C1235      H1246   1.110       .  S
C1235      H1247   1.107       .  S
C1235      H1248   1.111       .  S
C1249      C1250   1.399       .  A
C1249      C1254   1.403       .  A
C1249      H1259   1.084       .  S
C1250      C1255   1.476       .  S
C1250      C1251   1.409       .  A
C1251      C1252   1.401       .  A
C1251      C1256   1.507       .  S
C1252      C1253   1.406       .  A
C1252      H1257   1.084       .  S
C1253      C1254   1.419       .  A
C1254      C1258   1.508       .  S
C1255      C1260   1.408   1_565  A
C1255      C1264   1.398   1_565  A
C1256      H1272   1.110       .  S
C1256      H1273   1.110       .  S
C1256      H1274   1.111       .  S
C1258      H1269   1.109       .  S
C1258      H1270   1.111       .  S
C1258      H1271   1.111       .  S
C1260      C1261   1.400       .  A
C1260      C1265   1.507   1_545  S
C1261      C1262   1.407       .  A
C1261      H1266   1.084       .  S
C1262      C1263   1.423       .  A
C1263      C1264   1.404       .  A
C1263      C1267   1.508       .  S
C1264      H1268   1.084       .  S
C1265      H1275   1.111       .  S
C1265      H1276   1.110       .  S
C1265      H1277   1.110       .  S
C1267      H1278   1.111       .  S
C1267      H1279   1.110       .  S
C1267      H1280   1.110       .  S
C1281      C1282   1.400       .  A
C1281      C1286   1.400       .  A
C1281      H1291   1.085       .  S
C1282      C1287   1.475       .  S
C1282      C1283   1.408       .  A
C1283      C1284   1.403       .  A
C1283      C1288   1.506       .  S
C1284      C1285   1.406       .  A
C1284      H1289   1.084       .  S
C1285      C1286   1.415       .  A
C1286      C1290   1.507       .  S
C1287      C1292   1.411       .  A
C1287      C1296   1.399       .  A
C1288      H1304   1.110       .  S
C1288      H1305   1.110       .  S
C1288      H1306   1.111       .  S
C1290      H1301   1.110       .  S
C1290      H1302   1.111       .  S
C1290      H1303   1.108       .  S
C1292      C1293   1.400       .  A
C1292      C1297   1.508       .  S
C1293      C1294   1.403       .  A
C1293      H1298   1.084       .  S
C1294      C1295   1.417       .  A
C1295      C1296   1.403       .  A
C1295      C1299   1.508       .  S
C1296      H1300   1.084       .  S
C1297      H1307   1.111       .  S
C1297      H1308   1.110       .  S
C1297      H1309   1.110       .  S
C1299      H1310   1.110   1_545  S
C1299      H1311   1.108       .  S
C1299      H1312   1.111       .  S
C1313      C1314   1.399       .  A
C1313      C1318   1.405       .  A
C1313      H1323   1.084       .  S
C1314      C1319   1.475       .  S
C1314      C1315   1.406       .  A
C1315      C1316   1.398       .  A
C1315      C1320   1.508       .  S
C1316      C1317   1.408       .  A
C1316      H1321   1.084       .  S
C1317      C1318   1.422       .  A
C1318      C1322   1.508       .  S
C1319      C1324   1.409       .  A
C1319      C1328   1.400       .  A
C1320      H1336   1.110       .  S
C1320      H1337   1.110       .  S
C1320      H1338   1.111       .  S
C1322      H1333   1.111       .  S
C1322      H1334   1.110       .  S
C1322      H1335   1.110       .  S
C1324      C1325   1.402       .  A
C1324      C1329   1.506       .  S
C1325      C1326   1.404       .  A
C1325      H1330   1.084       .  S
C1326      C1327   1.415       .  A
C1327      C1328   1.401       .  A
C1327      C1331   1.508       .  S
C1328      H1332   1.084       .  S
C1329      H1339   1.111       .  S
C1329      H1340   1.110       .  S
C1329      H1341   1.110       .  S
C1331      H1342   1.109       .  S
C1331      H1343   1.111       .  S
C1331      H1344   1.111       .  S
C1345      C1346   1.398       .  A
C1345      C1350   1.400       .  A
C1345      H1355   1.084       .  S
C1346      C1351   1.471       .  S
C1346      C1347   1.408       .  A
C1347      C1348   1.401       .  A
C1347      C1352   1.507       .  S
C1348      C1349   1.405       .  A
C1348      H1353   1.084       .  S
C1349      C1350   1.417       .  A
C1350      C1354   1.508       .  S
C1351      C1356   1.411       .  A
C1351      C1360   1.401       .  A
C1352      H1368   1.110       .  S
C1352      H1369   1.109       .  S
C1352      H1370   1.111       .  S
C1354      H1365   1.111       .  S
C1354      H1366   1.110       .  S
C1354      H1367   1.110       .  S
C1356      C1357   1.396       .  A
C1356      C1361   1.510       .  S
C1357      C1358   1.401       .  A
C1357      H1362   1.085       .  S
C1358      C1359   1.413       .  A
C1359      C1360   1.405       .  A
C1359      C1363   1.506       .  S
C1360      H1364   1.084       .  S
C1361      H1371   1.111       .  S
C1361      H1372   1.110       .  S
C1361      H1373   1.109       .  S
C1363      H1374   1.111       .  S
C1363      H1375   1.111       .  S
C1363      H1376   1.109       .  S
C1377      C1378   1.400       .  A
C1377      C1382   1.406       .  A
C1377      H1387   1.084       .  S
C1378      C1383   1.483       .  S
C1378      C1379   1.410       .  A
C1379      C1380   1.404       .  A
C1379      C1384   1.506       .  S
C1380      C1381   1.407       .  A
C1380      H1385   1.084       .  S
C1381      C1382   1.421       .  A
C1382      C1386   1.508       .  S
C1383      C1388   1.409       .  A
C1383      C1392   1.400       .  A
C1384      H1400   1.110       .  S
C1384      H1401   1.110       .  S
C1384      H1402   1.111       .  S
C1386      H1397   1.109       .  S
C1386      H1398   1.111       .  S
C1386      H1399   1.111       .  S
C1388      C1389   1.404       .  A
C1388      C1393   1.507       .  S
C1389      C1390   1.408       .  A
C1389      H1394   1.084       .  S
C1390      C1391   1.422       .  A
C1391      C1392   1.407       .  A
C1391      C1395   1.507       .  S
C1392      H1396   1.084       .  S
C1393      H1403   1.111       .  S
C1393      H1404   1.110       .  S
C1393      H1405   1.110       .  S
C1395      H1406   1.110       .  S
C1395      H1407   1.109       .  S
C1395      H1408   1.111       .  S
C1409      C1410   1.399       .  A
C1409      C1414   1.402       .  A
C1409      H1419   1.085       .  S
C1410      C1415   1.474       .  S
C1410      C1411   1.409       .  A
C1411      C1412   1.400       .  A
C1411      C1416   1.507       .  S
C1412      C1413   1.404       .  A
C1412      H1417   1.084       .  S
C1413      C1414   1.420       .  A
C1414      C1418   1.510       .  S
C1415      C1420   1.408       .  A
C1415      C1424   1.401       .  A
C1416      H1432   1.110   1_655  S
C1416      H1433   1.109       .  S
C1416      H1434   1.111       .  S
C1418      H1429   1.110       .  S
C1418      H1430   1.111       .  S
C1418      H1431   1.104       .  S
C1420      C1421   1.403   1_655  A
C1420      C1425   1.506       .  S
C1421      C1422   1.404       .  A
C1421      H1426   1.084       .  S
C1422      C1423   1.414       .  A
C1423      C1424   1.400   1_455  A
C1423      C1427   1.509       .  S
C1424      H1428   1.085       .  S
C1425      H1435   1.111       .  S
C1425      H1436   1.110       .  S
C1425      H1437   1.109       .  S
C1427      H1438   1.110       .  S
C1427      H1439   1.107       .  S
C1427      H1440   1.111       .  S
C1441      C1442   1.401       .  A
C1441      C1446   1.405       .  A
C1441      H1451   1.084       .  S
C1442      C1447   1.478       .  S
C1442      C1443   1.411       .  A
C1443      C1444   1.399       .  A
C1443      C1448   1.508       .  S
C1444      C1445   1.403       .  A
C1444      H1449   1.084       .  S
C1445      C1446   1.418       .  A
C1446      C1450   1.507       .  S
C1447      C1452   1.409       .  A
C1447      C1456   1.399       .  A
C1448      H1464   1.110       .  S
C1448      H1465   1.110       .  S
C1448      H1466   1.111       .  S
C1450      H1461   1.110       .  S
C1450      H1462   1.111       .  S
C1450      H1463   1.107       .  S
C1452      C1453   1.400       .  A
C1452      C1457   1.507       .  S
C1453      C1454   1.405       .  A
C1453      H1458   1.084       .  S
C1454      C1455   1.422       .  A
C1455      C1456   1.403       .  A
C1455      C1459   1.510       .  S
C1456      H1460   1.085       .  S
C1457      H1467   1.111       .  S
C1457      H1468   1.110       .  S
C1457      H1469   1.111       .  S
C1459      H1470   1.110       .  S
C1459      H1471   1.102       .  S
C1459      H1472   1.111       .  S
C1473      C1474   1.401       .  A
C1473      C1478   1.403       .  A
C1473      H1483   1.085       .  S
C1474      C1479   1.481   1_556  S
C1474      C1475   1.410       .  A
C1475      C1476   1.404       .  A
C1475      C1480   1.506   1_556  S
C1476      C1477   1.404       .  A
C1476      H1481   1.084       .  S
C1477      C1478   1.416       .  A
C1478      C1482   1.508       .  S
C1479      C1484   1.411   1_554  A
C1479      C1488   1.401       .  A
C1480      H1496   1.110       .  S
C1480      H1497   1.110       .  S
C1480      H1498   1.111       .  S
C1482      H1493   1.111       .  S
C1482      H1494   1.110       .  S
C1482      H1495   1.106       .  S
C1484      C1485   1.403   1_556  A
C1484      C1489   1.506       .  S
C1485      C1486   1.402       .  A
C1485      H1490   1.084   1_554  S
C1486      C1487   1.417       .  A
C1487      C1488   1.403       .  A
C1487      C1491   1.509       .  S
C1488      H1492   1.084       .  S
C1489      H1499   1.111       .  S
C1489      H1500   1.110       .  S
C1489      H1501   1.110       .  S
C1491      H1502   1.111       .  S
C1491      H1503   1.107       .  S
C1491      H1504   1.110       .  S
C1505      C1506   1.399       .  A
C1505      C1510   1.404       .  A
C1505      H1515   1.084       .  S
C1506      C1511   1.478       .  S
C1506      C1507   1.408       .  A
C1507      C1508   1.403       .  A
C1507      C1512   1.507       .  S
C1508      C1509   1.407       .  A
C1508      H1513   1.084       .  S
C1509      C1510   1.421       .  A
C1510      C1514   1.508       .  S
C1511      C1516   1.409       .  A
C1511      C1520   1.400       .  A
C1512      H1528   1.110       .  S
C1512      H1529   1.110       .  S
C1512      H1530   1.111       .  S
C1514      H1525   1.110       .  S
C1514      H1526   1.111       .  S
C1514      H1527   1.111       .  S
C1516      C1517   1.403       .  A
C1516      C1521   1.506       .  S
C1517      C1518   1.404   1_565  A
C1517      H1522   1.084       .  S
C1518      C1519   1.417       .  A
C1519      C1520   1.402   1_545  A
C1519      C1523   1.509       .  S
C1520      H1524   1.085       .  S
C1521      H1531   1.111       .  S
C1521      H1532   1.110       .  S
C1521      H1533   1.110       .  S
C1523      H1534   1.110       .  S
C1523      H1535   1.106       .  S
C1523      H1536   1.111       .  S
C1537      C1538   1.401       .  A
C1537      C1542   1.401       .  A
C1537      H1547   1.084       .  S
C1538      C1543   1.471       .  S
C1538      C1539   1.407       .  A
C1539      C1540   1.400       .  A
C1539      C1544   1.506       .  S
C1540      C1541   1.405       .  A
C1540      H1545   1.084       .  S
C1541      C1542   1.413       .  A
C1542      C1546   1.507       .  S
C1543      C1548   1.408       .  A
C1543      C1552   1.399       .  A
C1544      H1560   1.110       .  S
C1544      H1561   1.110       .  S
C1544      H1562   1.111       .  S
C1546      H1557   1.109       .  S
C1546      H1558   1.111       .  S
C1546      H1559   1.111       .  S
C1548      C1549   1.398       .  A
C1548      C1553   1.507       .  S
C1549      C1550   1.403       .  A
C1549      H1554   1.084       .  S
C1550      C1551   1.419       .  A
C1551      C1552   1.401       .  A
C1551      C1555   1.510       .  S
C1552      H1556   1.085       .  S
C1553      H1563   1.111       .  S
C1553      H1564   1.110       .  S
C1553      H1565   1.110       .  S
C1555      H1566   1.111       .  S
C1555      H1567   1.104       .  S
C1555      H1568   1.110       .  S
C1569      C1570   1.398       .  A
C1569      C1574   1.402       .  A
C1569      H1579   1.084       .  S
C1570      C1575   1.475       .  S
C1570      C1571   1.410       .  A
C1571      C1572   1.401       .  A
C1571      C1576   1.507       .  S
C1572      C1573   1.404       .  A
C1572      H1577   1.083       .  S
C1573      C1574   1.418       .  A
C1574      C1578   1.506       .  S
C1575      C1580   1.408       .  A
C1575      C1584   1.398       .  A
C1576      H1592   1.110       .  S
C1576      H1593   1.111       .  S
C1576      H1594   1.111       .  S
C1578      H1589   1.109       .  S
C1578      H1590   1.111   1_545  S
C1578      H1591   1.107   1_545  S
C1580      C1581   1.399       .  A
C1580      C1585   1.508       .  S
C1581      C1582   1.408       .  A
C1581      H1586   1.084       .  S
C1582      C1583   1.421       .  A
C1583      C1584   1.403       .  A
C1583      C1587   1.508       .  S
C1584      H1588   1.084       .  S
C1585      H1595   1.111       .  S
C1585      H1596   1.110       .  S
C1585      H1597   1.110       .  S
C1587      H1598   1.110       .  S
C1587      H1599   1.110       .  S
C1587      H1600   1.111       .  S
C1601      C1602   1.401       .  A
C1601      C1606   1.407       .  A
C1601      H1611   1.084       .  S
C1602      C1607   1.482       .  S
C1602      C1603   1.408       .  A
C1603      C1604   1.402       .  A
C1603      C1608   1.507       .  S
C1604      C1605   1.407       .  A
C1604      H1609   1.084       .  S
C1605      C1606   1.421       .  A
C1606      C1610   1.507       .  S
C1607      C1612   1.410       .  A
C1607      C1616   1.400       .  A
C1608      H1624   1.110       .  S
C1608      H1625   1.110       .  S
C1608      H1626   1.111       .  S
C1610      H1621   1.110       .  S
C1610      H1622   1.111       .  S
C1610      H1623   1.109       .  S
C1612      C1613   1.405       .  A
C1612      C1617   1.506       .  S
C1613      C1614   1.406       .  A
C1613      H1618   1.084       .  S
C1614      C1615   1.418       .  A
C1615      C1616   1.402       .  A
C1615      C1619   1.509       .  S
C1616      H1620   1.085       .  S
C1617      H1627   1.111       .  S
C1617      H1628   1.110       .  S
C1617      H1629   1.110       .  S
C1619      H1630   1.110       .  S
C1619      H1631   1.107       .  S
C1619      H1632   1.111       .  S
C1633      C1634   1.398       .  A
C1633      C1638   1.401       .  A
C1633      H1643   1.085       .  S
C1634      C1639   1.477       .  S
C1634      C1635   1.410       .  A
C1635      C1636   1.403       .  A
C1635      C1640   1.507       .  S
C1636      C1637   1.403       .  A
C1636      H1641   1.084       .  S
C1637      C1638   1.420       .  A
C1638      C1642   1.509       .  S
C1639      C1644   1.406       .  A
C1639      C1648   1.400       .  A
C1640      H1656   1.110       .  S
C1640      H1657   1.110       .  S
C1640      H1658   1.111       .  S
C1642      H1653   1.110       .  S
C1642      H1654   1.111       .  S
C1642      H1655   1.103       .  S
C1644      C1645   1.400       .  A
C1644      C1649   1.507       .  S
C1645      C1646   1.409       .  A
C1645      H1650   1.083       .  S
C1646      C1647   1.420       .  A
C1647      C1648   1.405       .  A
C1647      C1651   1.508       .  S
C1648      H1652   1.084       .  S
C1649      H1659   1.111       .  S
C1649      H1660   1.110       .  S
C1649      H1661   1.110       .  S
C1651      H1662   1.111       .  S
C1651      H1663   1.110       .  S
C1651      H1664   1.109       .  S
C1665      C1666   1.396       .  A
C1665      C1670   1.398       .  A
C1665      H1675   1.085       .  S
C1666      C1671   1.474       .  S
C1666      C1667   1.410       .  A
C1667      C1668   1.405       .  A
C1667      C1672   1.505       .  S
C1668      C1669   1.404       .  A
C1668      H1673   1.084       .  S
C1669      C1670   1.418       .  A
C1670      C1674   1.508       .  S
C1671      C1676   1.408       .  A
C1671      C1680   1.399       .  A
C1672      H1688   1.110       .  S
C1672      H1689   1.110       .  S
C1672      H1690   1.111       .  S
C1674      H1685   1.111       .  S
C1674      H1686   1.109       .  S
C1674      H1687   1.109       .  S
C1676      C1677   1.399       .  A
C1676      C1681   1.508       .  S
C1677      C1678   1.406       .  A
C1677      H1682   1.084       .  S
C1678      C1679   1.420       .  A
C1679      C1680   1.404       .  A
C1679      C1683   1.508       .  S
C1680      H1684   1.084       .  S
C1681      H1691   1.111       .  S
C1681      H1692   1.110       .  S
C1681      H1693   1.110       .  S
C1683      H1694   1.111       .  S
C1683      H1695   1.111       .  S
C1683      H1696   1.110       .  S
C1697      C1698   1.400   1_554  A
C1697      C1702   1.404       .  A
C1697      H1707   1.084       .  S
C1698      C1703   1.478       .  S
C1698      C1699   1.409       .  A
C1699      C1700   1.401       .  A
C1699      C1704   1.507       .  S
C1700      C1701   1.405   1_556  A
C1700      H1705   1.084       .  S
C1701      C1702   1.418       .  A
C1702      C1706   1.507       .  S
C1703      C1708   1.409       .  A
C1703      C1712   1.401       .  A
C1704      H1720   1.110       .  S
C1704      H1721   1.110       .  S
C1704      H1722   1.111       .  S
C1706      H1717   1.109       .  S
C1706      H1718   1.111       .  S
C1706      H1719   1.110       .  S
C1708      C1709   1.401       .  A
C1708      C1713   1.507       .  S
C1709      C1710   1.404       .  A
C1709      H1714   1.084       .  S
C1710      C1711   1.415       .  A
C1711      C1712   1.404       .  A
C1711      C1715   1.507       .  S
C1712      H1716   1.084       .  S
C1713      H1723   1.111       .  S
C1713      H1724   1.110       .  S
C1713      H1725   1.110       .  S
C1715      H1726   1.109       .  S
C1715      H1727   1.111       .  S
C1715      H1728   1.111       .  S
C1729      C1730   1.402       .  A
C1729      C1734   1.407       .  A
C1729      H1739   1.084       .  S
C1730      C1735   1.480       .  S
C1730      C1731   1.408       .  A
C1731      C1732   1.398       .  A
C1731      C1736   1.508       .  S
C1732      C1733   1.408       .  A
C1732      H1737   1.084       .  S
C1733      C1734   1.420       .  A
C1734      C1738   1.507       .  S
C1735      C1740   1.408       .  A
C1735      C1744   1.399       .  A
C1736      H1752   1.109       .  S
C1736      H1753   1.110       .  S
C1736      H1754   1.111       .  S
C1738      H1749   1.111       .  S
C1738      H1750   1.110       .  S
C1738      H1751   1.110       .  S
C1740      C1741   1.403       .  A
C1740      C1745   1.507       .  S
C1741      C1742   1.408       .  A
C1741      H1746   1.084       .  S
C1742      C1743   1.421       .  A
C1743      C1744   1.403       .  A
C1743      C1747   1.508       .  S
C1744      H1748   1.084       .  S
C1745      H1755   1.111       .  S
C1745      H1756   1.110       .  S
C1745      H1757   1.110       .  S
C1747      H1758   1.111       .  S
C1747      H1759   1.110       .  S
C1747      H1760   1.111       .  S
C1761      C1762   1.399       .  A
C1761      C1766   1.401       .  A
C1761      H1771   1.085       .  S
C1762      C1767   1.477       .  S
C1762      C1763   1.409       .  A
C1763      C1764   1.404       .  A
C1763      C1768   1.506       .  S
C1764      C1765   1.406       .  A
C1764      H1769   1.084       .  S
C1765      C1766   1.418       .  A
C1766      C1770   1.508       .  S
C1767      C1772   1.409       .  A
C1767      C1776   1.401       .  A
C1768      H1784   1.110       .  S
C1768      H1785   1.110       .  S
C1768      H1786   1.111       .  S
C1770      H1781   1.111       .  S
C1770      H1782   1.108       .  S
C1770      H1783   1.110       .  S
C1772      C1773   1.404       .  A
C1772      C1777   1.505       .  S
C1773      C1774   1.405       .  A
C1773      H1778   1.084       .  S
C1774      C1775   1.414       .  A
C1775      C1776   1.401       .  A
C1775      C1779   1.509       .  S
C1776      H1780   1.085       .  S
C1777      H1787   1.111       .  S
C1777      H1788   1.110       .  S
C1777      H1789   1.110       .  S
C1779      H1790   1.111       .  S
C1779      H1791   1.111       .  S
C1779      H1792   1.109       .  S
C1793      C1794   1.399       .  A
C1793      C1798   1.404       .  A
C1793      H1803   1.084   1_556  S
C1794      C1799   1.475   1_556  S
C1794      C1795   1.406       .  A
C1795      C1796   1.399       .  A
C1795      C1800   1.507       .  S
C1796      C1797   1.410       .  A
C1796      H1801   1.083       .  S
C1797      C1798   1.422       .  A
C1798      C1802   1.508       .  S
C1799      C1804   1.406       .  A
C1799      C1808   1.398   1_554  A
C1800      H1816   1.110       .  S
C1800      H1817   1.110       .  S
C1800      H1818   1.111       .  S
C1802      H1813   1.111   1_556  S
C1802      H1814   1.110       .  S
C1802      H1815   1.110       .  S
C1804      C1805   1.402       .  A
C1804      C1809   1.506       .  S
C1805      C1806   1.409       .  A
C1805      H1810   1.084       .  S
C1806      C1807   1.421       .  A
C1807      C1808   1.401   1_554  A
C1807      C1811   1.508   1_554  S
C1808      H1812   1.085       .  S
C1809      H1819   1.111       .  S
C1809      H1820   1.110       .  S
C1809      H1821   1.110       .  S
C1811      H1822   1.109       .  S
C1811      H1823   1.110       .  S
C1811      H1824   1.111       .  S
C1825      C1826   1.401       .  A
C1825      C1830   1.404       .  A
C1825      H1835   1.084       .  S
C1826      C1831   1.475   1_556  S
C1826      C1827   1.405       .  A
C1827      C1828   1.401       .  A
C1827      C1832   1.506       .  S
C1828      C1829   1.409       .  A
C1828      H1833   1.084       .  S
C1829      C1830   1.417       .  A
C1830      C1834   1.507       .  S
C1831      C1836   1.410       .  A
C1831      C1840   1.400   1_554  A
C1832      H1848   1.110       .  S
C1832      H1849   1.110   1_556  S
C1832      H1850   1.111       .  S
C1834      H1845   1.111       .  S
C1834      H1846   1.110       .  S
C1834      H1847   1.110       .  S
C1836      C1837   1.403       .  A
C1836      C1841   1.506       .  S
C1837      C1838   1.403       .  A
C1837      H1842   1.081       .  S
C1838      C1839   1.413       .  A
C1839      C1840   1.399   1_554  A
C1839      C1843   1.507   1_554  S
C1840      H1844   1.084       .  S
C1841      H1851   1.111       .  S
C1841      H1852   1.110       .  S
C1841      H1853   1.110       .  S
C1843      H1854   1.110   1_565  S
C1843      H1855   1.109   1_566  S
C1843      H1856   1.110       .  S
C1857      C1858   1.400       .  A
C1857      C1862   1.407       .  A
C1857      H1867   1.084       .  S
C1858      C1863   1.480       .  S
C1858      C1859   1.408       .  A
C1859      C1860   1.401       .  A
C1859      C1864   1.508       .  S
C1860      C1861   1.408       .  A
C1860      H1865   1.084       .  S
C1861      C1862   1.420       .  A
C1862      C1866   1.507       .  S
C1863      C1868   1.409       .  A
C1863      C1872   1.398       .  A
C1864      H1880   1.110       .  S
C1864      H1881   1.110       .  S
C1864      H1882   1.111       .  S
C1866      H1877   1.109       .  S
C1866      H1878   1.111       .  S
C1866      H1879   1.110       .  S
C1868      C1869   1.403   1_565  A
C1868      C1873   1.506       .  S
C1869      C1870   1.407       .  A
C1869      H1874   1.084       .  S
C1870      C1871   1.422   1_545  A
C1871      C1872   1.403       .  A
C1871      C1875   1.509   1_565  S
C1872      H1876   1.084       .  S
C1873      H1883   1.111       .  S
C1873      H1884   1.110       .  S
C1873      H1885   1.110       .  S
C1875      H1886   1.110       .  S
C1875      H1887   1.110       .  S
C1875      H1888   1.111   1_545  S
C1889      C1890   1.399       .  A
C1889      C1894   1.401       .  A
C1889      H1899   1.085       .  S
C1890      C1895   1.471       .  S
C1890      C1891   1.409       .  A
C1891      C1892   1.397       .  A
C1891      C1896   1.508       .  S
C1892      C1893   1.404       .  A
C1892      H1897   1.084       .  S
C1893      C1894   1.418       .  A
C1894      C1898   1.508       .  S
C1895      C1900   1.407       .  A
C1895      C1904   1.399       .  A
C1896      H1912   1.110       .  S
C1896      H1913   1.110       .  S
C1896      H1914   1.111       .  S
C1898      H1909   1.111       .  S
C1898      H1910   1.110       .  S
C1898      H1911   1.106       .  S
C1900      C1901   1.398       .  A
C1900      C1905   1.507       .  S
C1901      C1902   1.406       .  A
C1901      H1906   1.084       .  S
C1902      C1903   1.418       .  A
C1903      C1904   1.402       .  A
C1903      C1907   1.508       .  S
C1904      H1908   1.084       .  S
C1905      H1915   1.111       .  S
C1905      H1916   1.110       .  S
C1905      H1917   1.110       .  S
C1907      H1918   1.111       .  S
C1907      H1919   1.110       .  S
C1907      H1920   1.109       .  S
C1921      C1922   1.399       .  A
C1921      C1926   1.405       .  A
C1921      H1931   1.084       .  S
C1922      C1927   1.482       .  S
C1922      C1923   1.409       .  A
C1923      C1924   1.405       .  A
C1923      C1928   1.507       .  S
C1924      C1925   1.408       .  A
C1924      H1929   1.084       .  S
C1925      C1926   1.421       .  A
C1926      C1930   1.508       .  S
C1927      C1932   1.411       .  A
C1927      C1936   1.400   1_556  A
C1928      H1944   1.110   1_556  S
C1928      H1945   1.109       .  S
C1928      H1946   1.111       .  S
C1930      H1941   1.111       .  S
C1930      H1942   1.111       .  S
C1930      H1943   1.109       .  S
C1932      C1933   1.404       .  A
C1932      C1937   1.507       .  S
C1933      C1934   1.404   1_556  A
C1933      H1938   1.084       .  S
C1934      C1935   1.418       .  A
C1935      C1936   1.405       .  A
C1935      C1939   1.508       .  S
C1936      H1940   1.084       .  S
C1937      H1947   1.111       .  S
C1937      H1948   1.110       .  S
C1937      H1949   1.109       .  S
C1939      H1950   1.109       .  S
C1939      H1951   1.111       .  S
C1939      H1952   1.111       .  S
C1953      C1954   1.403       .  A
C1953      C1958   1.404       .  A
C1953      H1963   1.084       .  S
C1954      C1959   1.477       .  S
C1954      C1955   1.407       .  A
C1955      C1956   1.401       .  A
C1955      C1960   1.506       .  S
C1956      C1957   1.406       .  A
C1956      H1961   1.084       .  S
C1957      C1958   1.412       .  A
C1958      C1962   1.507       .  S
C1959      C1964   1.409   1_556  A
C1959      C1968   1.400       .  A
C1960      H1976   1.110       .  S
C1960      H1977   1.110       .  S
C1960      H1978   1.111       .  S
C1962      H1973   1.111       .  S
C1962      H1974   1.109       .  S
C1962      H1975   1.111       .  S
C1964      C1965   1.403       .  A
C1964      C1969   1.506       .  S
C1965      C1966   1.404       .  A
C1965      H1970   1.084       .  S
C1966      C1967   1.415   1_554  A
C1967      C1968   1.401       .  A
C1967      C1971   1.508       .  S
C1968      H1972   1.085       .  S
C1969      H1979   1.111       .  S
C1969      H1980   1.110       .  S
C1969      H1981   1.110       .  S
C1971      H1982   1.110       .  S
C1971      H1983   1.109       .  S
C1971      H1984   1.111       .  S
C1985      C1986   1.401       .  A
C1985      C1990   1.403       .  A
C1985      H1995   1.085       .  S
C1986      C1991   1.481       .  S
C1986      C1987   1.409       .  A
C1987      C1988   1.404       .  A
C1987      C1992   1.506       .  S
C1988      C1989   1.408       .  A
C1988      H1993   1.084       .  S
C1989      C1990   1.419       .  A
C1990      C1994   1.508       .  S
C1991      C1996   1.410       .  A
C1991      C2000   1.400       .  A
C1992      H2008   1.109       .  S
C1992      H2009   1.110       .  S
C1992      H2010   1.111       .  S
C1994      H2005   1.110       .  S
C1994      H2006   1.111       .  S
C1994      H2007   1.111       .  S
C1996      C1997   1.403       .  A
C1996      C2001   1.507       .  S
C1997      C1998   1.408       .  A
C1997      H2002   1.084       .  S
C1998      C1999   1.421       .  A
C1999      C2000   1.403       .  A
C1999      C2003   1.509       .  S
C2000      H2004   1.084       .  S
C2001      H2011   1.111       .  S
C2001      H2012   1.109       .  S
C2001      H2013   1.110       .  S
C2003      H2014   1.109       .  S
C2003      H2015   1.110       .  S
C2003      H2016   1.111       .  S
C2017      C2018   1.400       .  A
C2017      C2022   1.406       .  A
C2017      H2027   1.084       .  S
C2018      C2023   1.480       .  S
C2018      C2019   1.409       .  A
C2019      C2020   1.402       .  A
C2019      C2024   1.507       .  S
C2020      C2021   1.406       .  A
C2020      H2025   1.084       .  S
C2021      C2022   1.419       .  A
C2022      C2026   1.507       .  S
C2023      C2028   1.408       .  A
C2023      C2032   1.400       .  A
C2024      H2040   1.110       .  S
C2024      H2041   1.110       .  S
C2024      H2042   1.111       .  S
C2026      H2037   1.109       .  S
C2026      H2038   1.111       .  S
C2026      H2039   1.111       .  S
C2028      C2029   1.403       .  A
C2028      C2033   1.507       .  S
C2029      C2030   1.408       .  A
C2029      H2034   1.084       .  S
C2030      C2031   1.420       .  A
C2031      C2032   1.405       .  A
C2031      C2035   1.507       .  S
C2032      H2036   1.084       .  S
C2033      H2043   1.111       .  S
C2033      H2044   1.110       .  S
C2033      H2045   1.110       .  S
C2035      H2046   1.110       .  S
C2035      H2047   1.109       .  S
C2035      H2048   1.111       .  S
C2049      C2050   1.399       .  A
C2049      C2054   1.403       .  A
C2049      H2059   1.085       .  S
C2050      C2055   1.480       .  S
C2050      C2051   1.410       .  A
C2051      C2052   1.403       .  A
C2051      C2056   1.507       .  S
C2052      C2053   1.405       .  A
C2052      H2057   1.084       .  S
C2053      C2054   1.422       .  A
C2054      C2058   1.510       .  S
C2055      C2060   1.410       .  A
C2055      C2064   1.402       .  A
C2056      H2072   1.110       .  S
C2056      H2073   1.110       .  S
C2056      H2074   1.111       .  S
C2058      H2069   1.110       .  S
C2058      H2070   1.111       .  S
C2058      H2071   1.103       .  S
C2060      C2061   1.404       .  A
C2060      C2065   1.506       .  S
C2061      C2062   1.403       .  A
C2061      H2066   1.084       .  S
C2062      C2063   1.414       .  A
C2063      C2064   1.402       .  A
C2063      C2067   1.509       .  S
C2064      H2068   1.085       .  S
C2065      H2075   1.111       .  S
C2065      H2076   1.110       .  S
C2065      H2077   1.110       .  S
C2067      H2078   1.110       .  S
C2067      H2079   1.107       .  S
C2067      H2080   1.111       .  S
C2081      C2082   1.401       .  A
C2081      C2086   1.404       .  A
C2081      H2091   1.084       .  S
C2082      C2087   1.477       .  S
C2082      C2083   1.410       .  A
C2083      C2084   1.400       .  A
C2083      C2088   1.508       .  S
C2084      C2085   1.404       .  A
C2084      H2089   1.084       .  S
C2085      C2086   1.416       .  A
C2086      C2090   1.507       .  S
C2087      C2092   1.408       .  A
C2087      C2096   1.399       .  A
C2088      H2104   1.110       .  S
C2088      H2105   1.110       .  S
C2088      H2106   1.111       .  S
C2090      H2101   1.110       .  S
C2090      H2102   1.111       .  S
C2090      H2103   1.108       .  S
C2092      C2093   1.401       .  A
C2092      C2097   1.507       .  S
C2093      C2094   1.406       .  A
C2093      H2098   1.084       .  S
C2094      C2095   1.422       .  A
C2095      C2096   1.403       .  A
C2095      C2099   1.510       .  S
C2096      H2100   1.085       .  S
C2097      H2107   1.111       .  S
C2097      H2108   1.110       .  S
C2097      H2109   1.111       .  S
C2099      H2110   1.110       .  S
C2099      H2111   1.102       .  S
C2099      H2112   1.111       .  S
C2113      C2114   1.401       .  A
C2113      C2118   1.401       .  A
C2113      H2123   1.085       .  S
C2114      C2119   1.477       .  S
C2114      C2115   1.410       .  A
C2115      C2116   1.402       .  A
C2115      C2120   1.506       .  S
C2116      C2117   1.403       .  A
C2116      H2121   1.084       .  S
C2117      C2118   1.415       .  A
C2118      C2122   1.509       .  S
C2119      C2124   1.409       .  A
C2119      C2128   1.399       .  A
C2120      H2136   1.110       .  S
C2120      H2137   1.110       .  S
C2120      H2138   1.111       .  S
C2122      H2133   1.111       .  S
C2122      H2134   1.110       .  S
C2122      H2135   1.107       .  S
C2124      C2125   1.402       .  A
C2124      C2129   1.506       .  S
C2125      C2126   1.405       .  A
C2125      H2130   1.084       .  S
C2126      C2127   1.419       .  A
C2127      C2128   1.401       .  A
C2127      C2131   1.507       .  S
C2128      H2132   1.085       .  S
C2129      H2139   1.111       .  S
C2129      H2140   1.110       .  S
C2129      H2141   1.110       .  S
C2131      H2142   1.111       .  S
C2131      H2143   1.101       .  S
C2131      H2144   1.110       .  S
C2145      C2146   1.401   1_455  A
C2145      C2150   1.400       .  A
C2145      H2155   1.084       .  S
C2146      C2151   1.468       .  S
C2146      C2147   1.407       .  A
C2147      C2148   1.399   1_655  A
C2147      C2152   1.507       .  S
C2148      C2149   1.404       .  A
C2148      H2153   1.085       .  S
C2149      C2150   1.412       .  A
C2150      C2154   1.507       .  S
C2151      C2156   1.406       .  A
C2151      C2160   1.399       .  A
C2152      H2168   1.110       .  S
C2152      H2169   1.110       .  S
C2152      H2170   1.111       .  S
C2154      H2165   1.111       .  S
C2154      H2166   1.111       .  S
C2154      H2167   1.109       .  S
C2156      C2157   1.398       .  A
C2156      C2161   1.507       .  S
C2157      C2158   1.406       .  A
C2157      H2162   1.084       .  S
C2158      C2159   1.415       .  A
C2159      C2160   1.399       .  A
C2159      C2163   1.505       .  S
C2160      H2164   1.085       .  S
C2161      H2171   1.111       .  S
C2161      H2172   1.110       .  S
C2161      H2173   1.110       .  S
C2163      H2174   1.110       .  S
C2163      H2175   1.103       .  S
C2163      H2176   1.111       .  S
C2177      C2178   1.399       .  A
C2177      C2182   1.407       .  A
C2177      H2187   1.084       .  S
C2178      C2183   1.484       .  S
C2178      C2179   1.408       .  A
C2179      C2180   1.404       .  A
C2179      C2184   1.506       .  S
C2180      C2181   1.409       .  A
C2180      H2185   1.084       .  S
C2181      C2182   1.423       .  A
C2182      C2186   1.508       .  S
C2183      C2188   1.409       .  A
C2183      C2192   1.402       .  A
C2184      H2200   1.110       .  S
C2184      H2201   1.110       .  S
C2184      H2202   1.111       .  S
C2186      H2197   1.110       .  S
C2186      H2198   1.111       .  S
C2186      H2199   1.110       .  S
C2188      C2189   1.403       .  A
C2188      C2193   1.507       .  S
C2189      C2190   1.406       .  A
C2189      H2194   1.084       .  S
C2190      C2191   1.418       .  A
C2191      C2192   1.408       .  A
C2191      C2195   1.507       .  S
C2192      H2196   1.084       .  S
C2193      H2203   1.111       .  S
C2193      H2204   1.110       .  S
C2193      H2205   1.110       .  S
C2195      H2206   1.109       .  S
C2195      H2207   1.111       .  S
C2195      H2208   1.111       .  S
C2209      C2210   1.403       .  A
C2209      C2214   1.405       .  A
C2209      H2219   1.084       .  S
C2210      C2215   1.478       .  S
C2210      C2211   1.409       .  A
C2211      C2212   1.399       .  A
C2211      C2216   1.507       .  S
C2212      C2213   1.403       .  A
C2212      H2217   1.085       .  S
C2213      C2214   1.414       .  A
C2214      C2218   1.507       .  S
C2215      C2220   1.407       .  A
C2215      C2224   1.403       .  A
C2216      H2232   1.110       .  S
C2216      H2233   1.110       .  S
C2216      H2234   1.111       .  S
C2218      H2229   1.111       .  S
C2218      H2230   1.110       .  S
C2218      H2231   1.108       .  S
C2220      C2221   1.398       .  A
C2220      C2225   1.508       .  S
C2221      C2222   1.406       .  A
C2221      H2226   1.085       .  S
C2222      C2223   1.416       .  A
C2223      C2224   1.406       .  A
C2223      C2227   1.506       .  S
C2224      H2228   1.084       .  S
C2225      H2235   1.111       .  S
C2225      H2236   1.110       .  S
C2225      H2237   1.110       .  S
C2227      H2238   1.110       .  S
C2227      H2239   1.107       .  S
C2227      H2240   1.111       .  S
C2241      C2242   1.400       .  A
C2241      C2246   1.400       .  A
C2241      H2251   1.085       .  S
C2242      C2247   1.478       .  S
C2242      C2243   1.410       .  A
C2243      C2244   1.405       .  A
C2243      C2248   1.506       .  S
C2244      C2245   1.405       .  A
C2244      H2249   1.084       .  S
C2245      C2246   1.414       .  A
C2246      C2250   1.507       .  S
C2247      C2252   1.409       .  A
C2247      C2256   1.402       .  A
C2248      H2264   1.110       .  S
C2248      H2265   1.110       .  S
C2248      H2266   1.111       .  S
C2250      H2261   1.110       .  S
C2250      H2262   1.110       .  S
C2250      H2263   1.108       .  S
C2252      C2253   1.404   1_455  A
C2252      C2257   1.505       .  S
C2253      C2254   1.404       .  A
C2253      H2258   1.085       .  S
C2254      C2255   1.414       .  A
C2255      C2256   1.401   1_655  A
C2255      C2259   1.509       .  S
C2256      H2260   1.085       .  S
C2257      H2267   1.111       .  S
C2257      H2268   1.110       .  S
C2257      H2269   1.110       .  S
C2259      H2270   1.111       .  S
C2259      H2271   1.107       .  S
C2259      H2272   1.110       .  S
C2273      C2274   1.402       .  A
C2273      C2278   1.403       .  A
C2273      H2283   1.084       .  S
C2274      C2279   1.480       .  S
C2274      C2275   1.409       .  A
C2275      C2276   1.402       .  A
C2275      C2280   1.506       .  S
C2276      C2277   1.404       .  A
C2276      H2281   1.084       .  S
C2277      C2278   1.416       .  A
C2278      C2282   1.508       .  S
C2279      C2284   1.409       .  A
C2279      C2288   1.398       .  A
C2280      H2296   1.110       .  S
C2280      H2297   1.110       .  S
C2280      H2298   1.111       .  S
C2282      H2293   1.111       .  S
C2282      H2294   1.110       .  S
C2282      H2295   1.106       .  S
C2284      C2285   1.404   1_565  A
C2284      C2289   1.506       .  S
C2285      C2286   1.407       .  A
C2285      H2290   1.084       .  S
C2286      C2287   1.421       .  A
C2287      C2288   1.404   1_545  A
C2287      C2291   1.508       .  S
C2288      H2292   1.084       .  S
C2289      H2299   1.111       .  S
C2289      H2300   1.110       .  S
C2289      H2301   1.110       .  S
C2291      H2302   1.111       .  S
C2291      H2303   1.109       .  S
C2291      H2304   1.110       .  S
C2305      C2306   1.403       .  A
C2305      C2310   1.405       .  A
C2305      H2315   1.084       .  S
C2306      C2311   1.479       .  S
C2306      C2307   1.408       .  A
C2307      C2308   1.401       .  A
C2307      C2312   1.507       .  S
C2308      C2309   1.405       .  A
C2308      H2313   1.085       .  S
C2309      C2310   1.415       .  A
C2310      C2314   1.507       .  S
C2311      C2316   1.410       .  A
C2311      C2320   1.400       .  A
C2312      H2328   1.110       .  S
C2312      H2329   1.110       .  S
C2312      H2330   1.111       .  S
C2314      H2325   1.111       .  S
C2314      H2326   1.110       .  S
C2314      H2327   1.107       .  S
C2316      C2317   1.402       .  A
C2316      C2321   1.507       .  S
C2317      C2318   1.405       .  A
C2317      H2322   1.084       .  S
C2318      C2319   1.419       .  A
C2319      C2320   1.406       .  A
C2319      C2323   1.508       .  S
C2320      H2324   1.084       .  S
C2321      H2331   1.111       .  S
C2321      H2332   1.110       .  S
C2321      H2333   1.110       .  S
C2323      H2334   1.111       .  S
C2323      H2335   1.109       .  S
C2323      H2336   1.111       .  S
C2337      C2338   1.398       .  A
C2337      C2342   1.398       .  A
C2337      H2347   1.085       .  S
C2338      C2343   1.470       .  S
C2338      C2339   1.410       .  A
C2339      C2340   1.401       .  A
C2339      C2344   1.507       .  S
C2340      C2341   1.402       .  A
C2340      H2345   1.085       .  S
C2341      C2342   1.414       .  A
C2342      C2346   1.509       .  S
C2343      C2348   1.407       .  A
C2343      C2352   1.400       .  A
C2344      H2360   1.110       .  S
C2344      H2361   1.110       .  S
C2344      H2362   1.111       .  S
C2346      H2357   1.111       .  S
C2346      H2358   1.110       .  S
C2346      H2359   1.107       .  S
C2348      C2349   1.398       .  A
C2348      C2353   1.507       .  S
C2349      C2350   1.404       .  A
C2349      H2354   1.084       .  S
C2350      C2351   1.415       .  A
C2351      C2352   1.401       .  A
C2351      C2355   1.508       .  S
C2352      H2356   1.085       .  S
C2353      H2363   1.111       .  S
C2353      H2364   1.110       .  S
C2353      H2365   1.110       .  S
C2355      H2366   1.111       .  S
C2355      H2367   1.107       .  S
C2355      H2368   1.110       .  S
C2369      C2370   1.398       .  A
C2369      C2374   1.404       .  A
C2369      H2379   1.084       .  S
C2370      C2375   1.476       .  S
C2370      C2371   1.407       .  A
C2371      C2372   1.400       .  A
C2371      C2376   1.507       .  S
C2372      C2373   1.408       .  A
C2372      H2377   1.084       .  S
C2373      C2374   1.422       .  A
C2374      C2378   1.508       .  S
C2375      C2380   1.407       .  A
C2375      C2384   1.397       .  A
C2376      H2392   1.110       .  S
C2376      H2393   1.110       .  S
C2376      H2394   1.111       .  S
C2378      H2389   1.110       .  S
C2378      H2390   1.111       .  S
C2378      H2391   1.110       .  S
C2380      C2381   1.401       .  A
C2380      C2385   1.507       .  S
C2381      C2382   1.409       .  A
C2381      H2386   1.083       .  S
C2382      C2383   1.423       .  A
C2383      C2384   1.404       .  A
C2383      C2387   1.508       .  S
C2384      H2388   1.084       .  S
C2385      H2395   1.111       .  S
C2385      H2396   1.110       .  S
C2385      H2397   1.110       .  S
C2387      H2398   1.110       .  S
C2387      H2399   1.110       .  S
C2387      H2400   1.111       .  S
C2401      C2402   1.401       .  A
C2401      C2406   1.402       .  A
C2401      H2411   1.084       .  S
C2402      C2407   1.474       .  S
C2402      C2403   1.407       .  A
C2403      C2404   1.400       .  A
C2403      C2408   1.506       .  S
C2404      C2405   1.405       .  A
C2404      H2409   1.084       .  S
C2405      C2406   1.415       .  A
C2406      C2410   1.508       .  S
C2407      C2412   1.408   1_565  A
C2407      C2416   1.401       .  A
C2408      H2424   1.110       .  S
C2408      H2425   1.110   1_565  S
C2408      H2426   1.111       .  S
C2410      H2421   1.110       .  S
C2410      H2422   1.111       .  S
C2410      H2423   1.108       .  S
C2412      C2413   1.402       .  A
C2412      C2417   1.506       .  S
C2413      C2414   1.405   1_455  A
C2413      H2418   1.084       .  S
C2414      C2415   1.413       .  A
C2415      C2416   1.399   1_645  A
C2415      C2419   1.507   1_545  S
C2416      H2420   1.085       .  S
C2417      H2427   1.111       .  S
C2417      H2428   1.110       .  S
C2417      H2429   1.110       .  S
C2419      H2430   1.110       .  S
C2419      H2431   1.107   1_565  S
C2419      H2432   1.111       .  S
C2433      C2434   1.400       .  A
C2433      C2438   1.404       .  A
C2433      H2443   1.084       .  S
C2434      C2439   1.477       .  S
C2434      C2435   1.408       .  A
C2435      C2436   1.401       .  A
C2435      C2440   1.507       .  S
C2436      C2437   1.406       .  A
C2436      H2441   1.084       .  S
C2437      C2438   1.418       .  A
C2438      C2442   1.508       .  S
C2439      C2444   1.411       .  A
C2439      C2448   1.400       .  A
C2440      H2456   1.110       .  S
C2440      H2457   1.110       .  S
C2440      H2458   1.111       .  S
C2442      H2453   1.111       .  S
C2442      H2454   1.111       .  S
C2442      H2455   1.109       .  S
C2444      C2445   1.402       .  A
C2444      C2449   1.507       .  S
C2445      C2446   1.403       .  A
C2445      H2450   1.084       .  S
C2446      C2447   1.416       .  A
C2447      C2448   1.403       .  A
C2447      C2451   1.508       .  S
C2448      H2452   1.084       .  S
C2449      H2459   1.111       .  S
C2449      H2460   1.110       .  S
C2449      H2461   1.110       .  S
C2451      H2462   1.111       .  S
C2451      H2463   1.109       .  S
C2451      H2464   1.110       .  S
C2465      C2466   1.400       .  A
C2465      C2470   1.402       .  A
C2465      H2475   1.084   1_455  S
C2466      C2471   1.477   1_455  S
C2466      C2467   1.412       .  A
C2467      C2468   1.401       .  A
C2467      C2472   1.507       .  S
C2468      C2469   1.400       .  A
C2468      H2473   1.085       .  S
C2469      C2470   1.414       .  A
C2470      C2474   1.506       .  S
C2471      C2476   1.409       .  A
C2471      C2480   1.398       .  A
C2472      H2488   1.110   1_455  S
C2472      H2489   1.110       .  S
C2472      H2490   1.111       .  S
C2474      H2485   1.110       .  S
C2474      H2486   1.111       .  S
C2474      H2487   1.106       .  S
C2476      C2477   1.403       .  A
C2476      C2481   1.507   1_655  S
C2477      C2478   1.405       .  A
C2477      H2482   1.084       .  S
C2478      C2479   1.421       .  A
C2479      C2480   1.401       .  A
C2479      C2483   1.510       .  S
C2480      H2484   1.085       .  S
C2481      H2491   1.111       .  S
C2481      H2492   1.110       .  S
C2481      H2493   1.110       .  S
C2483      H2494   1.110       .  S
C2483      H2495   1.103       .  S
C2483      H2496   1.111       .  S
