geometry optimzed in LAMMPS
_audit_creation_date              2020-12-01 
_audit_creation_method            'lammps2cif' 
_symmetry_space_group_name_H-M    'P1' 
_symmetry_Int_Tables_number       1 
_symmetry_cell_setting            triclinic 
loop_ 
_symmetry_equiv_pos_as_xyz 
  x,y,z 
_cell_length_a                    50.16925963 
_cell_length_b                    50.59669740232043 
_cell_length_c                    131.79090743059723 
_cell_angle_alpha                 90.35410773047211 
_cell_angle_beta                  90.62999642489252 
_cell_angle_gamma                 121.40153191280503 
loop_ 
_atom_site_label 
_atom_site_type_symbol 
_atom_site_fract_x 
_atom_site_fract_y 
_atom_site_fract_z 
_atom_site_charge 
In1        In  0.08234501  0.19046700  0.29647679     1.36900
C2          C  0.08925818  0.14288013  0.29942247     0.77500
O3          O  0.03554317  0.16266404  0.30389092    -0.61000
O4          O  0.03669280  0.16994758  0.28803196    -0.51900
C5          C  0.09611207  0.23881601  0.30813725     0.70100
O6          O  0.10248167  0.21868574  0.31068539    -0.46700
C7          C  0.12262080  0.21280828  0.28145995     0.74900
O8          O  0.09364833  0.16170954  0.30653600    -0.58600
O9          O  0.09557882  0.20875875  0.28070177    -0.48700
O10         O  0.08110862  0.14837830  0.29101559    -0.55000
C11         C  0.02024736  0.15693608  0.29569215     0.85000
O12         O  0.08360378  0.23462392  0.29945564    -0.56900
O13         O  0.13012356  0.20885983  0.29023808    -0.60200
In14       In  0.16181664  0.46697162  0.36427055     1.36900
C15         C  0.15832850  0.51726901  0.36337745     0.77500
O16         O  0.11956312  0.45008636  0.37368770    -0.61000
O17         O  0.16133199  0.45702900  0.38073067    -0.51900
C18         C  0.13864730  0.41476931  0.35380696     0.70100
O19         O  0.13218756  0.43508709  0.35154389    -0.46700
C20         C  0.22094930  0.49236755  0.35921403     0.74900
O21         O  0.14596349  0.49634326  0.35655634    -0.58600
O22         O  0.21145246  0.48131711  0.36791244    -0.48700
O23         O  0.17276069  0.51247731  0.37030686    -0.55000
C24         C  0.13368552  0.45096628  0.38179620     0.85000
O25         O  0.15514462  0.42058071  0.36173783    -0.56900
O26         O  0.20007213  0.49006706  0.35321865    -0.60200
In27       In  0.21950249  0.78998887  0.36337853     1.36900
C28         C  0.27165493  0.79536252  0.35643162     0.77500
O29         O  0.25314465  0.83350148  0.37201814    -0.61000
O30         O  0.21483506  0.79781353  0.37997407    -0.51900
C31         C  0.18497231  0.80797774  0.35332718     0.70100
O32         O  0.21388336  0.81997430  0.35204671    -0.46700
C33         C  0.19132146  0.72841242  0.36388473     0.74900
O34         O  0.26592858  0.79544765  0.36569074    -0.58600
O35         O  0.19793078  0.74488038  0.37181765    -0.48700
O36         O  0.25093692  0.79365120  0.35046072    -0.55000
C37         C  0.24028500  0.82362525  0.38046977     0.85000
O38         O  0.17398348  0.78777469  0.36014011    -0.56900
O39         O  0.19705366  0.74327802  0.35576860    -0.60200
In40       In  0.02113789  0.87177406  0.29642748     1.36900
C41         C  0.96541164  0.86552974  0.29851745     0.77500
O42         O  0.03757763  0.91411630  0.30594566    -0.61000
O43         O  0.05393944  0.92010072  0.29086124    -0.51900
C44         C  0.05271611  0.85224468  0.30734169     0.70100
O45         O  0.02448998  0.84326680  0.30899091    -0.46700
C46         C  0.00569966  0.84092213  0.27894391     0.74900
O47         O  0.98111582  0.87433731  0.29054185    -0.58600
O48         O  0.02911356  0.86809990  0.27988735    -0.48700
O49         O  0.97846553  0.86018164  0.30582784    -0.55000
C50         C  0.05327174  0.93276529  0.29905713     0.85000
O51         O  0.06395134  0.86975550  0.29982264    -0.56900
O52         O  0.99242782  0.82853198  0.28715073    -0.60200
In53       In  0.46547036  0.71389937  0.35299513     1.36900
C54         C  0.43219092  0.65426321  0.34831379     0.77500
O55         O  0.48736149  0.70778392  0.36710018    -0.61000
O56         O  0.44450880  0.70635777  0.36846526    -0.51900
C57         C  0.51793941  0.74848460  0.34270981     0.70100
O58         O  0.49750372  0.72130195  0.34006895    -0.46700
C59         C  0.43282091  0.74128342  0.35001478     0.74900
O60         O  0.45450546  0.66500864  0.35464304    -0.58600
O61         O  0.45361280  0.74960569  0.35684153    -0.48700
O62         O  0.42927229  0.67436545  0.34367241    -0.55000
C63         C  0.46527675  0.70328262  0.37279127     0.85000
O64         O  0.51236194  0.75731387  0.35093022    -0.56900
O65         O  0.42918779  0.71921995  0.34446219    -0.60200
In66       In  0.75265146  0.91893231  0.28931732     1.36900
C67         C  0.80465439  0.97379009  0.29125220     0.77500
O68         O  0.77806250  0.90440851  0.29971313    -0.61000
O69         O  0.76938348  0.88737516  0.28449783    -0.51900
C70         C  0.70072154  0.88616603  0.29970464     0.70100
O71         O  0.72148773  0.91353065  0.30226867    -0.46700
C72         C  0.73570309  0.93540666  0.27256955     0.74900
O73         O  0.78346665  0.96404608  0.29785133    -0.58600
O74         O  0.73919369  0.91236407  0.27265809    -0.48700
O75         O  0.79886607  0.95540207  0.28389679    -0.55000
C76         C  0.78232053  0.88919229  0.29299410     0.85000
O77         O  0.70626545  0.87632649  0.29166510    -0.56900
O78         O  0.73725363  0.94723737  0.28117993    -0.60200
In79       In  0.16248643  0.12409226  0.20079537     1.36900
C80         C  0.10969666  0.12273704  0.19812793     0.77500
O81         O  0.13991184  0.08067241  0.19147861    -0.61000
O82         O  0.14753411  0.07711035  0.20714408    -0.51900
C83         C  0.21243698  0.14516199  0.18936062     0.70100
O84         O  0.18934798  0.14738244  0.18682981    -0.46700
C85         C  0.17907913  0.16059774  0.21706500     0.74900
O86         O  0.11592960  0.11262199  0.20594627    -0.58600
O87         O  0.17857193  0.13532648  0.21710403    -0.48700
O88         O  0.13066520  0.13356790  0.19147341    -0.55000
C89         C  0.13609398  0.06317295  0.19877547     0.85000
O90         O  0.21070162  0.13408164  0.19805155    -0.56900
O91         O  0.17445952  0.16847336  0.20846501    -0.60200
In92       In  0.42641555  0.19303543  0.12931123     1.36900
C93         C  0.47532365  0.19065047  0.13611359     0.77500
O94         O  0.41088256  0.14832718  0.12123446    -0.61000
O95         O  0.40902296  0.18372092  0.11317355    -0.51900
C96         C  0.37731209  0.17534513  0.14104382     0.70100
O97         O  0.40019942  0.17297354  0.14367488    -0.46700
C98         C  0.45909404  0.25330442  0.12527859     0.74900
O99         O  0.45715023  0.17327584  0.12916241    -0.58600
O100        O  0.45783656  0.23290461  0.11942654    -0.48700
O101        O  0.46685761  0.20747604  0.14032279    -0.55000
C102        C  0.40641570  0.15748805  0.11285493     0.85000
O103        O  0.37893231  0.18532825  0.13220489    -0.56900
O104        O  0.44167095  0.24268673  0.13285209    -0.60200
In105      In  0.90080199  0.80315702  0.19288122     1.36900
C106        C  0.95894630  0.85022201  0.19272562     0.77500
O107        O  0.89240881  0.83433433  0.18316671    -0.61000
O108        O  0.87005671  0.82126193  0.19740383    -0.51900
C109        C  0.86652674  0.75250788  0.18151795     0.70100
O110        O  0.89436327  0.77268514  0.17939079    -0.46700
C111        C  0.91276724  0.78507123  0.21011707     0.74900
O112        O  0.94782370  0.83061361  0.18547119    -0.58600
O113        O  0.89047782  0.78980739  0.20916376    -0.48700
O114        O  0.94014293  0.84577220  0.19970569    -0.55000
C115        C  0.87544591  0.83722409  0.18951132     0.85000
O116        O  0.85693021  0.75790896  0.18960727    -0.56900
O117        O  0.92595489  0.78554604  0.20195976    -0.60200
In118      In  0.69585259  0.52233892  0.12451484     1.36900
C119        C  0.64213686  0.46863514  0.12538081     0.77500
O120        O  0.66859898  0.53560758  0.11455666    -0.61000
O121        O  0.70580255  0.53317899  0.10796249    -0.51900
C122        C  0.72642499  0.57407412  0.13551044     0.70100
O123        O  0.69931414  0.55241266  0.13780402    -0.46700
C124        C  0.73012394  0.49886442  0.12987078     0.74900
O125        O  0.64692728  0.49162887  0.13076709    -0.58600
O126        O  0.73158700  0.50958839  0.12110714    -0.48700
O127        O  0.66474726  0.47363973  0.11993198    -0.55000
C128        C  0.68286110  0.53668559  0.10658799     0.85000
O129        O  0.73642363  0.56982041  0.12730419    -0.56900
O130        O  0.71214770  0.50146128  0.13586316    -0.60200
In131      In  0.75862979  0.28012773  0.13539365     1.36900
C132        C  0.77932189  0.33794723  0.14092818     0.77500
O133        O  0.78760135  0.29195147  0.12114596    -0.61000
O134        O  0.74349882  0.28805385  0.12021547    -0.51900
C135        C  0.77936234  0.24599792  0.14423097     0.70100
O136        O  0.78617530  0.27220003  0.14760202    -0.46700
C137        C  0.69740596  0.25057301  0.13833584     0.74900
O138        O  0.79400631  0.33103597  0.13482220    -0.58600
O139        O  0.70925762  0.24325382  0.13126382    -0.48700
O140        O  0.75747285  0.31525298  0.14545792    -0.55000
C141        C  0.76823039  0.29468992  0.11573268     0.85000
O142        O  0.76302698  0.23795763  0.13620917    -0.56900
O143        O  0.71704673  0.27165154  0.14421119    -0.60200
In144      In  0.83463617  0.05991365  0.19107094     1.36900
C145        C  0.82938146  0.00566499  0.18706689     0.77500
O146        O  0.88110652  0.07820329  0.18386206    -0.61000
O147        O  0.88020061  0.08547662  0.19968521    -0.51900
C148        C  0.82059281  0.09732536  0.18106213     0.70100
O149        O  0.81114325  0.06998949  0.17803396    -0.46700
C150        C  0.79856027  0.04143385  0.20720874     0.74900
O151        O  0.83194401  0.02368189  0.18000465    -0.58600
O152        O  0.82640819  0.06421534  0.20741572    -0.48700
O153        O  0.82767452  0.01472379  0.19578865    -0.55000
C154        C  0.89637533  0.08797842  0.19207865     0.85000
O155        O  0.83614871  0.10474124  0.18924777    -0.56900
O156        O  0.78810338  0.02994453  0.19845480    -0.60200
In157      In  0.10907197  0.52849290  0.46805637     1.36900
C158        C  0.15408433  0.52104301  0.47567702     0.77500
O159        O  0.09927562  0.48716163  0.45883456    -0.61000
O160        O  0.09571520  0.52257496  0.45152260    -0.51900
C161        C  0.05657925  0.51124110  0.47777108     0.70100
O162        O  0.07738001  0.50684545  0.48128061    -0.46700
C163        C  0.14315846  0.58914024  0.46499383     0.74900
O164        O  0.15147539  0.54367036  0.47818167    -0.58600
O165        O  0.13907166  0.56914603  0.45839992    -0.48700
O166        O  0.13199652  0.50099816  0.47019334    -0.55000
C167        C  0.09502414  0.49734876  0.45066058     0.85000
O168        O  0.06215823  0.52317327  0.46914374    -0.56900
O169        O  0.12882113  0.57804255  0.47314746    -0.60200
In170      In  0.82814387  0.46386581  0.52981672     1.36900
C171        C  0.77726317  0.46530306  0.52625590     0.77500
O172        O  0.80375397  0.41881877  0.52113527    -0.61000
O173        O  0.80910155  0.41792134  0.53711925    -0.51900
C174        C  0.87955067  0.48191556  0.51955770     0.70100
O175        O  0.85924173  0.48792790  0.51661912    -0.46700
C176        C  0.84633778  0.50120623  0.54589369     0.74900
O177        O  0.78290092  0.45652599  0.53449310    -0.58600
O178        O  0.84473019  0.47543237  0.54604036    -0.48700
O179        O  0.79794664  0.47345137  0.51955803    -0.55000
C180        C  0.79739176  0.40263667  0.52898527     0.85000
O181        O  0.87384212  0.46792956  0.52787022    -0.56900
O182        O  0.84159449  0.50894056  0.53728911    -0.60200
In183      In  0.42966005  0.60522344  0.46211276     1.36900
C184        C  0.45510001  0.66541660  0.46613180     0.77500
O185        O  0.45149261  0.60925124  0.44681496    -0.61000
O186        O  0.41015097  0.61098066  0.44762435    -0.51900
C187        C  0.45111390  0.57205987  0.47090034     0.70100
O188        O  0.46209600  0.60027149  0.47298568    -0.46700
C189        C  0.37055286  0.57636723  0.46807180     0.74900
O190        O  0.46520661  0.65569417  0.45924971    -0.58600
O191        O  0.37859145  0.56924104  0.45995184    -0.48700
O192        O  0.43511139  0.64451698  0.47173040    -0.55000
C193        C  0.43200694  0.61380081  0.44219328     0.85000
O194        O  0.43123198  0.56178764  0.46376405    -0.56900
O195        O  0.39285959  0.59775097  0.47317129    -0.60200
In196      In  0.49940313  0.39281703  0.52383519     1.36900
C197        C  0.47852420  0.33386052  0.51884021     0.77500
O198        O  0.54297533  0.40568794  0.51518756    -0.61000
O199        O  0.54775224  0.42449616  0.52999122    -0.51900
C200        C  0.48186715  0.42827642  0.51433608     0.70100
O201        O  0.47399269  0.40149262  0.51130573    -0.46700
C202        C  0.48659646  0.38013080  0.54329063     0.74900
O203        O  0.46455386  0.34156206  0.52493877    -0.58600
O204        O  0.51341688  0.39099146  0.53966634    -0.48700
O205        O  0.50083396  0.35627115  0.51435165    -0.55000
C206        C  0.56121092  0.42195701  0.52235524     0.85000
O207        O  0.49711695  0.43619460  0.52256953    -0.56900
O208        O  0.46626003  0.37815370  0.53704449    -0.60200
In209      In  0.37880509  0.85769389  0.46065939     1.36900
C210        C  0.32597027  0.80333693  0.46158533     0.77500
O211        O  0.34541550  0.86907615  0.45385251    -0.61000
O212        O  0.38222278  0.87406143  0.44456425    -0.51900
C213        C  0.40651722  0.90734906  0.47276079     0.70100
O214        O  0.38211774  0.88249771  0.47524071    -0.46700
C215        C  0.41587918  0.83493958  0.46268484     0.74900
O216        O  0.33364704  0.82421940  0.46829975    -0.58600
O217        O  0.41426635  0.84694058  0.45447338    -0.48700
O218        O  0.34570108  0.81032085  0.45468386    -0.55000
C219        C  0.35705551  0.87411246  0.44513655     0.85000
O220        O  0.41630732  0.90676248  0.46402412    -0.56900
O221        O  0.40006358  0.83645789  0.46978444    -0.60200
In222      In  0.55529984  0.14108741  0.53084002     1.36900
C223        C  0.61071206  0.19159303  0.52883135     0.77500
O224        O  0.53883951  0.16479181  0.52060081    -0.61000
O225        O  0.52190679  0.15640613  0.53561449    -0.51900
C226        C  0.52510044  0.08993318  0.51950370     0.70100
O227        O  0.55059661  0.11341168  0.51695804    -0.46700
C228        C  0.57457981  0.12738262  0.54778801     0.74900
O229        O  0.60054914  0.16949809  0.52244741    -0.58600
O230        O  0.54990304  0.12844968  0.54753548    -0.48700
O231        O  0.59213531  0.18781003  0.53582880    -0.55000
C232        C  0.52263473  0.16819019  0.52709985     0.85000
O233        O  0.51576974  0.09204604  0.52816016    -0.56900
O234        O  0.58671219  0.12970844  0.53925933    -0.60200
In235      In  0.09458498  0.60468609  0.96555716     1.36900
C236        C  0.13543014  0.66333695  0.97071783     0.77500
O237        O  0.12162910  0.59113338  0.97549080    -0.61000
O238        O  0.10794200  0.57048837  0.96078519    -0.51900
C239        C  0.04012755  0.56913237  0.97441764     0.70100
O240        O  0.05978276  0.59589483  0.97774010    -0.46700
C241        C  0.09413774  0.61691428  0.94607808     0.74900
O242        O  0.13658761  0.64100920  0.97434769    -0.58600
O243        O  0.11244250  0.60945611  0.94990448    -0.48700
O244        O  0.11141035  0.65558858  0.96538713    -0.55000
C245        C  0.12216601  0.57292022  0.96903516     0.85000
O246        O  0.04752487  0.56187767  0.96624892    -0.56900
O247        O  0.07430313  0.61596967  0.95213035    -0.60200
In248      In  0.80582598  0.37830342  0.02447399     1.36900
C249        C  0.77109646  0.31855970  0.01992405     0.77500
O250        O  0.82653842  0.37213647  0.03885331    -0.61000
O251        O  0.78687551  0.37663161  0.03994140    -0.51900
C252        C  0.85933219  0.41534685  0.01499122     0.70100
O253        O  0.84298745  0.38675661  0.01304179    -0.46700
C254        C  0.76962488  0.40053659  0.01965278     0.74900
O255        O  0.77392941  0.33933022  0.01400006    -0.58600
O256        O  0.79121697  0.41325277  0.02625793    -0.48700
O257        O  0.78946719  0.32843147  0.02749172    -0.55000
C258        C  0.80607409  0.37168813  0.04449576     0.85000
O259        O  0.84937370  0.42405724  0.02217578    -0.56900
O260        O  0.76687416  0.37672680  0.01551768    -0.60200
In261      In  0.41160994  0.85960915  0.95951253     1.36900
C262        C  0.41226399  0.80773162  0.96114438     0.77500
O263        O  0.37117773  0.83655008  0.96979815    -0.61000
O264        O  0.36199815  0.84231559  0.95443568    -0.51900
C265        C  0.42949596  0.90952669  0.97103311     0.70100
O266        O  0.43631783  0.88942917  0.97327014    -0.46700
C267        C  0.44631575  0.87837696  0.94299106     0.74900
O268        O  0.42581462  0.82949544  0.96766181    -0.58600
O269        O  0.41945891  0.87491999  0.94321392    -0.48700
O270        O  0.39869587  0.81280603  0.95397986    -0.55000
C271        C  0.35101458  0.83193423  0.96310700     0.85000
O272        O  0.41591401  0.90518687  0.96253144    -0.56900
O273        O  0.45632382  0.87508804  0.95143221    -0.60200
In274      In  0.49114542  0.13447898  0.02860673     1.36900
C275        C  0.49021753  0.18628015  0.02742447     0.77500
O276        O  0.44775980  0.11980626  0.03720198    -0.61000
O277        O  0.48658373  0.12276263  0.04508256    -0.51900
C278        C  0.46716096  0.08171805  0.01801998     0.70100
O279        O  0.46245726  0.10305726  0.01549206    -0.46700
C280        C  0.55170350  0.16018114  0.02529415     0.74900
O281        O  0.47774518  0.16543476  0.02056708    -0.58600
O282        O  0.53951143  0.14762058  0.03360537    -0.48700
O283        O  0.50339789  0.18054951  0.03453158    -0.55000
C284        C  0.45945307  0.11848785  0.04557185     0.85000
O285        O  0.48298867  0.08716706  0.02609232    -0.56900
O286        O  0.53262213  0.15852267  0.01862856    -0.60200
In287      In  0.34078930  0.53133207  0.96434216     1.36900
C288        C  0.28657477  0.52439303  0.96938741     0.77500
O289        O  0.36292471  0.57808074  0.97195102    -0.61000
O290        O  0.36434416  0.57632843  0.95591719    -0.51900
C291        C  0.37823393  0.51665010  0.97387607     0.70100
O292        O  0.35159908  0.50897344  0.97713865    -0.46700
C293        C  0.31889500  0.49217904  0.94872673     0.74900
O294        O  0.29628105  0.52816427  0.96043818    -0.58600
O295        O  0.34266520  0.51916269  0.94811700    -0.48700
O296        O  0.30475474  0.52398854  0.97603728    -0.55000
C297        C  0.37034494  0.59293841  0.96379352     0.85000
O298        O  0.38520361  0.53114328  0.96564603    -0.56900
O299        O  0.30811896  0.48437154  0.95753684    -0.60200
In300      In  0.56224754  0.45909811  0.02091526     1.36900
C301        C  0.61033633  0.45857659  0.01274605     0.77500
O302        O  0.60134562  0.49841355  0.02972383    -0.61000
O303        O  0.55978105  0.46736943  0.03749479    -0.51900
C304        C  0.52964389  0.48094789  0.01187818     0.70100
O305        O  0.55238148  0.48139118  0.00772724    -0.46700
C306        C  0.52866368  0.39854590  0.02432192     0.74900
O307        O  0.61306470  0.48238281  0.01690450    -0.58600
O308        O  0.54666874  0.41808266  0.03092465    -0.48700
O309        O  0.58253925  0.43655901  0.01155454    -0.55000
C310        C  0.58735235  0.49042280  0.03805413     0.85000
O311        O  0.52442149  0.47031780  0.02069721    -0.56900
O312        O  0.52640469  0.41024995  0.01616476    -0.60200
In313      In  0.15742554  0.07070872  0.69635191     1.36900
C314        C  0.10521248  0.01524005  0.69595904     0.77500
O315        O  0.17556093  0.04614727  0.70546726    -0.61000
O316        O  0.17036631  0.08061957  0.71291742    -0.51900
C317        C  0.20818077  0.10087771  0.68507242     0.70100
O318        O  0.18643571  0.07358874  0.68284657    -0.46700
C319        C  0.13044250  0.10310028  0.69252397     0.74900
O320        O  0.12503202  0.02365556  0.68894607    -0.58600
O321        O  0.14530505  0.10614593  0.70068261    -0.48700
O322        O  0.11229206  0.03523936  0.70287020    -0.55000
C323        C  0.17597485  0.05908111  0.71375198     0.85000
O324        O  0.20440632  0.11144020  0.69325873    -0.56900
O325        O  0.13052639  0.08436003  0.68619211    -0.60200
In326      In  0.44125082  0.27189665  0.63121205     1.36900
C327        C  0.48031745  0.33148700  0.63582803     0.77500
O328        O  0.46952841  0.25982712  0.64133287    -0.61000
O329        O  0.45523270  0.23758097  0.62692890    -0.51900
C330        C  0.38657417  0.23901037  0.64051569     0.70100
O331        O  0.40708336  0.26623231  0.64317492    -0.46700
C332        C  0.44229995  0.28300168  0.61150974     0.74900
O333        O  0.45745016  0.32254464  0.62981113    -0.58600
O334        O  0.46303711  0.28038521  0.61606894    -0.48700
O335        O  0.48075711  0.30996562  0.64042484    -0.55000
C336        C  0.47043776  0.24141561  0.63506585     0.85000
O337        O  0.39329896  0.22932404  0.63271731    -0.56900
O338        O  0.41928016  0.27739285  0.61690837    -0.60200
In339      In  0.75796480  0.53393129  0.62706878     1.36900
C340        C  0.76217425  0.48428327  0.62896771     0.77500
O341        O  0.71589645  0.50785532  0.63662238    -0.61000
O342        O  0.70865235  0.51599910  0.62133417    -0.51900
C343        C  0.77698499  0.58487526  0.63812759     0.70100
O344        O  0.78504403  0.56565043  0.64024347    -0.46700
C345        C  0.79379764  0.55337442  0.61087371     0.74900
O346        O  0.77141132  0.50452987  0.63599417    -0.58600
O347        O  0.76617380  0.54802584  0.61067451    -0.48700
O348        O  0.75059108  0.48950901  0.62126333    -0.55000
C349        C  0.69648033  0.50364442  0.62969175     0.85000
O350        O  0.76024463  0.57834859  0.63020998    -0.56900
O351        O  0.80368810  0.55160031  0.61952871    -0.60200
In352      In  0.82732615  0.80389039  0.69722299     1.36900
C353        C  0.82731744  0.85592318  0.69563197     0.77500
O354        O  0.77897400  0.78559675  0.70276478    -0.61000
O355        O  0.81183502  0.78435874  0.71281851    -0.51900
C356        C  0.81344438  0.75643598  0.68512824     0.70100
O357        O  0.80513557  0.77554202  0.68308230    -0.46700
C358        C  0.88907078  0.83399218  0.69718170     0.74900
O359        O  0.82053743  0.83759263  0.68812729    -0.58600
O360        O  0.87354406  0.82113131  0.70505185    -0.48700
O361        O  0.83363441  0.84723060  0.70377114    -0.55000
C362        C  0.78491998  0.78043677  0.71161190     0.85000
O363        O  0.82734115  0.76092705  0.69357672    -0.56900
O364        O  0.87284543  0.82977373  0.68928341    -0.60200
In365      In  0.69838199  0.21214066  0.63095591     1.36900
C366        C  0.64210050  0.20183161  0.63587447     0.77500
O367        O  0.72080403  0.25873772  0.63857533    -0.61000
O368        O  0.72121422  0.25728566  0.62254841    -0.51900
C369        C  0.73320993  0.19590840  0.64146927     0.70100
O370        O  0.70563573  0.18753848  0.64381967    -0.46700
C371        C  0.68333694  0.17865576  0.61399651     0.74900
O372        O  0.65005643  0.20027503  0.62699453    -0.58600
O373        O  0.67144626  0.16682699  0.62242884    -0.48700
O374        O  0.66291432  0.20812604  0.64253703    -0.55000
C375        C  0.72810876  0.27377094  0.63047017     0.85000
O376        O  0.74262089  0.21189566  0.63356922    -0.56900
O377        O  0.70498758  0.20680881  0.61449947    -0.60200
In378      In  0.90203494  0.13251581  0.69568612     1.36900
C379        C  0.95891139  0.14261194  0.69219244     0.77500
O380        O  0.92836650  0.17560201  0.70537067    -0.61000
O381        O  0.89175841  0.13475102  0.71205498    -0.51900
C382        C  0.86865433  0.14925795  0.68450025     0.70100
O383        O  0.89663132  0.15810585  0.68257252    -0.46700
C384        C  0.87179428  0.07101345  0.69461061     0.74900
O385        O  0.94185933  0.14303965  0.68515499    -0.58600
O386        O  0.87341552  0.08561715  0.70258376    -0.48700
O387        O  0.94704497  0.13763810  0.70084968    -0.55000
C388        C  0.91404126  0.16231371  0.71336398     0.85000
O389        O  0.85862323  0.13343822  0.69240789    -0.56900
O390        O  0.88455566  0.08787684  0.68706598    -0.60200
In391      In  0.14616775  0.72979583  0.85928591     1.36900
C392        C  0.13047801  0.67164716  0.85522775     0.77500
O393        O  0.18541536  0.74131447  0.84903328    -0.61000
O394        O  0.19565300  0.76885233  0.86239192    -0.51900
C395        C  0.12183367  0.75909119  0.84989510     0.70100
O396        O  0.11449956  0.73198064  0.84742813    -0.46700
C397        C  0.13789428  0.72000847  0.87903538     0.74900
O398        O  0.11671162  0.67840626  0.86172697    -0.58600
O399        O  0.16414668  0.73078952  0.87492289    -0.48700
O400        O  0.14949307  0.69411108  0.84992523    -0.55000
C401        C  0.20589381  0.76328494  0.85445223     0.85000
O402        O  0.13923691  0.76975489  0.85764296    -0.56900
O403        O  0.11640381  0.71713724  0.87316434    -0.60200
In404      In  0.07216712  0.93195420  0.79396350     1.36900
C405        C  0.07534772  0.98506473  0.79770674     0.77500
O406        O  0.11938891  0.96547609  0.78778449    -0.61000
O407        O  0.08652491  0.92899522  0.77806131    -0.51900
C408        C  0.08662671  0.89772800  0.80541948     0.70100
O409        O  0.09271447  0.92430066  0.80815706    -0.46700
C410        C  0.00996263  0.89972454  0.79295007     0.74900
O411        O  0.08123947  0.97129883  0.80455224    -0.58600
O412        O  0.02643657  0.90347343  0.78528900    -0.48700
O413        O  0.06792334  0.97153921  0.78917473    -0.55000
C414        C  0.11272595  0.95390961  0.77894208     0.85000
O415        O  0.07450299  0.88948045  0.79666342    -0.56900
O416        O  0.02537966  0.91077072  0.80109304    -0.60200
In417      In  0.74256294  0.86309509  0.79011051     1.36900
C418        C  0.79409415  0.86019067  0.79096345     0.77500
O419        O  0.72222975  0.81542814  0.78347635    -0.61000
O420        O  0.72337008  0.85044412  0.77423527    -0.51900
C421        C  0.69430407  0.85155976  0.80173476     0.70100
O422        O  0.71277391  0.84239307  0.80403578    -0.46700
C423        C  0.77535486  0.92418940  0.79160657     0.74900
O424        O  0.77580588  0.85270929  0.79842383    -0.58600
O425        O  0.76215206  0.91027305  0.78336142    -0.48700
O426        O  0.78564360  0.86869754  0.78323613    -0.55000
C427        C  0.71848085  0.82327353  0.77473613     0.85000
O428        O  0.69981705  0.86506388  0.79331725    -0.56900
O429        O  0.77061942  0.90674585  0.79903180    -0.60200
In430      In  0.46746696  0.80492891  0.85695612     1.36900
C431        C  0.42213629  0.81473034  0.85125528     0.77500
O432        O  0.44137049  0.75537552  0.85117522    -0.61000
O433        O  0.43825393  0.76329868  0.86673843    -0.51900
C434        C  0.51774009  0.82026410  0.84561076     0.70100
O435        O  0.49965274  0.82998901  0.84370729    -0.46700
C436        C  0.48871334  0.83662933  0.87434005     0.74900
O437        O  0.43947154  0.82742577  0.85890305    -0.58600
O438        O  0.48356183  0.80950049  0.87321505    -0.48700
O439        O  0.42951870  0.79872662  0.84596405    -0.55000
C440        C  0.42983824  0.74370994  0.85961460     0.85000
O441        O  0.51056258  0.80384843  0.85340923    -0.56900
O442        O  0.48590596  0.84848566  0.86629512    -0.60200
In443      In  0.01028495  0.18919822  0.79963150     1.36900
C444        C  0.95462243  0.13833956  0.79920728     0.77500
O445        O  0.98283206  0.20574763  0.79129587    -0.61000
O446        O  0.02107718  0.20748568  0.78378079    -0.51900
C447        C  0.04076335  0.23804690  0.81170271     0.70100
O448        O  0.01315289  0.21655944  0.81349964    -0.46700
C449        C  0.04106598  0.16002947  0.80186871     0.74900
O450        O  0.96358947  0.15683158  0.80675860    -0.58600
O451        O  0.04256616  0.17470850  0.79396304    -0.48700
O452        O  0.97439005  0.14586941  0.79230516    -0.55000
C453        C  0.99741912  0.21014337  0.78313504     0.85000
O454        O  0.05214577  0.23439105  0.80372098    -0.56900
O455        O  0.02515007  0.16182377  0.80888561    -0.60200
In456      In  0.20141253  0.47338853  0.86758718     1.36900
C457        C  0.25713711  0.52459045  0.86671762     0.77500
O458        O  0.18717937  0.49791285  0.85695512    -0.61000
O459        O  0.16949543  0.49039121  0.87194042    -0.51900
C460        C  0.16829844  0.42284966  0.85642816     0.70100
O461        O  0.19584349  0.44370039  0.85422120    -0.46700
C462        C  0.21471649  0.45122756  0.88364204     0.74900
O463        O  0.24704597  0.50393001  0.85980206    -0.58600
O464        O  0.19405273  0.45847669  0.88384470    -0.48700
O465        O  0.23902731  0.51831237  0.87409082    -0.55000
C466        C  0.17121380  0.50218490  0.86333373     0.85000
O467        O  0.15813028  0.42768386  0.86450979    -0.56900
O468        O  0.22669566  0.45340968  0.87507980    -0.60200
C469        C  0.07293977  0.32048711  0.85024355    -0.17900
C470        C  0.05492051  0.29459838  0.84394666    -0.20100
C471        C  0.06551348  0.29284869  0.83429971     0.20600
C472        C  0.09452378  0.31744539  0.83095581    -0.03000
C473        C  0.11268646  0.34348203  0.83730018    -0.06100
C474        C  0.10185871  0.34499696  0.84699621     0.20800
C475        C  0.14172645  0.36795453  0.83394003     0.19000
C476        C  0.15221307  0.36638106  0.82426795    -0.17600
C477        C  0.13422652  0.34057774  0.81798373    -0.19800
C478        C  0.10548637  0.31600394  0.82128064     0.20500
C479        C  0.08759334  0.28996700  0.81506893    -0.32800
C480        C  0.05875924  0.26538114  0.81834422     0.01200
C481        C  0.04772661  0.26694153  0.82794391    -0.24100
C482        C  0.12019198  0.37099145  0.85325800    -0.28700
C483        C  0.14924998  0.39528112  0.84995422     0.06800
C484        C  0.15983366  0.39359893  0.84030318    -0.27400
H485        H  0.06429305  0.32131003  0.85766401     0.11600
H486        H  0.03271852  0.27592693  0.84662715     0.12700
H487        H  0.17439341  0.38506263  0.82157854     0.11800
H488        H  0.14284895  0.33979018  0.81055390     0.11000
H489        H  0.09615469  0.28887055  0.80765355     0.16400
H490        H  0.02551911  0.24792298  0.83049531     0.12300
H491        H  0.11190991  0.37227896  0.86070077     0.15200
H492        H  0.18209918  0.41240313  0.83770088     0.14900
C493        C  0.36517583  0.63750351  0.84537843    -0.17900
C494        C  0.34151755  0.60645515  0.84643552    -0.20100
C495        C  0.32741428  0.59540147  0.85585175     0.20600
C496        C  0.33788000  0.61565620  0.86435902    -0.03000
C497        C  0.36190866  0.64694544  0.86330707    -0.06100
C498        C  0.37529562  0.65800823  0.85373466     0.20800
C499        C  0.37190114  0.66733037  0.87176823     0.19000
C500        C  0.35825826  0.65611691  0.88123724    -0.17600
C501        C  0.33428799  0.62519943  0.88226104    -0.19800
C502        C  0.32365706  0.60493112  0.87384306     0.20500
C503        C  0.29828160  0.57449735  0.87465373    -0.32800
C504        C  0.28688963  0.55460097  0.86611263     0.01200
C505        C  0.30220698  0.56485556  0.85681472    -0.24100
C506        C  0.39804862  0.68949947  0.85263653    -0.28700
C507        C  0.40763415  0.71010992  0.86098533     0.06800
C508        C  0.39478442  0.69871277  0.87056065    -0.27400
H509        H  0.37527107  0.64558555  0.83798332     0.11600
H510        H  0.33380268  0.59123675  0.83983116     0.12700
H511        H  0.36572585  0.67141753  0.88781803     0.11800
H512        H  0.32368486  0.61727784  0.88960455     0.11000
H513        H  0.28668237  0.56663901  0.88186604     0.16400
H514        H  0.29348725  0.54962464  0.85020888     0.12300
H515        H  0.40783926  0.69808304  0.84523545     0.15200
H516        H  0.40204814  0.71442417  0.87703395     0.14900
C517        C  0.83655175  0.01789754  0.81291258    -0.17900
C518        C  0.86189684  0.04829173  0.81405772    -0.20100
C519        C  0.87893567  0.06490921  0.80558265     0.20600
C520        C  0.86952806  0.05112536  0.79580923    -0.03000
C521        C  0.84391535  0.02056610  0.79465012    -0.06100
C522        C  0.82778788  0.00367117  0.80327138     0.20800
C523        C  0.83529629  0.00650221  0.78490654     0.19000
C524        C  0.85175689  0.02337564  0.77639702    -0.17600
C525        C  0.87716295  0.05361335  0.77754583    -0.19800
C526        C  0.88648481  0.06739821  0.78722061     0.20500
C527        C  0.91330134  0.09665547  0.78848046    -0.32800
C528        C  0.92375280  0.10985217  0.79820523     0.01200
C529        C  0.90596782  0.09446101  0.80671995    -0.24100
C530        C  0.80409241  0.97246731  0.80213729    -0.28700
C531        C  0.79628971  0.95803759  0.79249959     0.06800
C532        C  0.81126140  0.97541400  0.78388742    -0.27400
H533        H  0.82425704  0.00526057  0.81959921     0.11600
H534        H  0.86865892  0.05850652  0.82160061     0.12700
H535        H  0.84542878  0.01293624  0.76887587     0.11800
H536        H  0.88998780  0.06596303  0.77088805     0.11000
H537        H  0.92674666  0.10876112  0.78187491     0.16400
H538        H  0.91400335  0.10469914  0.81422014     0.12300
H539        H  0.79246008  0.95909064  0.80879409     0.15200
H540        H  0.80543807  0.96427552  0.77646186     0.14900
C541        C  0.60339325  0.80258761  0.83803714    -0.17900
C542        C  0.62804145  0.80687857  0.83197881    -0.20100
C543        C  0.63636583  0.82553914  0.82335982     0.20600
C544        C  0.61979190  0.84028030  0.82088811    -0.03000
C545        C  0.59492871  0.83605419  0.82704875    -0.06100
C546        C  0.58667729  0.81699728  0.83562893     0.20800
C547        C  0.57819381  0.85063545  0.82458043     0.19000
C548        C  0.58676482  0.86957818  0.81600922    -0.17600
C549        C  0.61135429  0.87372459  0.80989826    -0.19800
C550        C  0.62787911  0.85900726  0.81222795     0.20500
C551        C  0.65214426  0.86246135  0.80602009    -0.32800
C552        C  0.66862734  0.84757888  0.80836923     0.01200
C553        C  0.66075695  0.82944320  0.81713563    -0.24100
C554        C  0.56175442  0.81246103  0.84163726    -0.28700
C555        C  0.54470246  0.82662135  0.83923768     0.06800
C556        C  0.55312548  0.84579993  0.83068436    -0.27400
H557        H  0.59733967  0.78788543  0.84460829     0.11600
H558        H  0.64047715  0.79539754  0.83400336     0.12700
H559        H  0.57432151  0.88105998  0.81399086     0.11800
H560        H  0.61732071  0.88831088  0.80329977     0.11000
H561        H  0.65822326  0.87679649  0.79934998     0.16400
H562        H  0.67339088  0.81807178  0.81905610     0.12300
H563        H  0.55543559  0.79756302  0.84817044     0.15200
H564        H  0.54010789  0.85676898  0.82875226     0.14900
C565        C  0.88360361  0.86630849  0.77314451    -0.17900
C566        C  0.91369239  0.87094562  0.77340230    -0.20100
C567        C  0.92890360  0.87378220  0.78271275     0.20600
C568        C  0.91313103  0.87078299  0.79184578    -0.03000
C569        C  0.88269979  0.86591164  0.79158634    -0.06100
C570        C  0.86811347  0.86426570  0.78219622     0.20800
C571        C  0.86732367  0.86373739  0.80074138     0.19000
C572        C  0.88221431  0.86581653  0.81003915    -0.17600
C573        C  0.91240312  0.87088521  0.81029763    -0.19800
C574        C  0.92819611  0.87383961  0.80125908     0.20500
C575        C  0.95926905  0.88119505  0.80149723    -0.32800
C576        C  0.97570215  0.88582192  0.79245761     0.01200
C577        C  0.96004764  0.88100082  0.78307606    -0.24100
C578        C  0.83872262  0.86150145  0.78205216    -0.28700
C579        C  0.82358345  0.86004560  0.79117586     0.06800
C580        C  0.83775189  0.86047386  0.80046847    -0.27400
H581        H  0.87267072  0.86488878  0.76586126     0.11600
H582        H  0.92536400  0.87307210  0.76631443     0.12700
H583        H  0.87074983  0.86415863  0.81713081     0.11800
H584        H  0.92364762  0.87311264  0.81758466     0.11000
H585        H  0.97113169  0.88474764  0.80875585     0.16400
H586        H  0.97260278  0.88461176  0.77607797     0.12300
H587        H  0.82785115  0.86101274  0.77484015     0.15200
H588        H  0.82631079  0.85950680  0.80750570     0.14900
C589        C  0.08876540  0.08070046  0.78364484    -0.17900
C590        C  0.08512190  0.10617715  0.78436607    -0.20100
C591        C  0.07453601  0.11228765  0.79336786     0.20600
C592        C  0.06887918  0.09340880  0.80189129    -0.03000
C593        C  0.07294550  0.06788743  0.80120408    -0.06100
C594        C  0.08219655  0.06115541  0.79195066     0.20800
C595        C  0.06656652  0.04842817  0.80962560     0.19000
C596        C  0.05687528  0.05517427  0.81872526    -0.17600
C597        C  0.05242724  0.08027001  0.81936236    -0.19800
C598        C  0.05780390  0.09917292  0.81093066     0.20500
C599        C  0.05076115  0.12266120  0.81117406    -0.32800
C600        C  0.05465567  0.14028641  0.80247773     0.01200
C601        C  0.06785179  0.13586910  0.79377985    -0.24100
C602        C  0.08374825  0.03444631  0.79104772    -0.28700
C603        C  0.07671303  0.01457110  0.79930033     0.06800
C604        C  0.06895154  0.02203179  0.80866151    -0.27400
H605        H  0.09611647  0.07591657  0.77651921     0.11600
H606        H  0.08964779  0.12053962  0.77777597     0.12700
H607        H  0.05196096  0.04057045  0.82527151     0.11800
H608        H  0.04407859  0.08445447  0.82637976     0.11000
H609        H  0.04072582  0.12609276  0.81792880     0.16400
H610        H  0.07102210  0.14944851  0.78707284     0.12300
H611        H  0.08997866  0.02879729  0.78384290     0.15200
H612        H  0.06333423  0.00655934  0.81500854     0.14900
C613        C  0.31635121  0.83467640  0.86397579    -0.17900
C614        C  0.34731782  0.84204116  0.86344996    -0.20100
C615        C  0.35607285  0.82797180  0.85607251     0.20600
C616        C  0.33386011  0.80758040  0.84881055    -0.03000
C617        C  0.30265605  0.80019326  0.84933299    -0.06100
C618        C  0.29367929  0.81311298  0.85713896     0.20800
C619        C  0.28009261  0.77840274  0.84243349     0.19000
C620        C  0.28909589  0.76536190  0.83478452    -0.17600
C621        C  0.31998927  0.77259981  0.83429014    -0.19800
C622        C  0.34234562  0.79305965  0.84141756     0.20500
C623        C  0.37243682  0.79768709  0.84168342    -0.32800
C624        C  0.39391960  0.81622899  0.84934085     0.01200
C625        C  0.38606450  0.83238747  0.85622667    -0.24100
C626        C  0.26195594  0.80270555  0.85836336    -0.28700
C627        C  0.23926310  0.77936193  0.85194068     0.06800
C628        C  0.24862001  0.76848845  0.84369973    -0.27400
H629        H  0.30991553  0.84497719  0.86996271     0.11600
H630        H  0.36417478  0.85789017  0.86904406     0.12700
H631        H  0.27200265  0.74867550  0.82941237     0.11800
H632        H  0.32615028  0.76137276  0.82854685     0.11000
H633        H  0.37838744  0.78520267  0.83636361     0.16400
H634        H  0.40258961  0.84679774  0.86214303     0.12300
H635        H  0.25481681  0.81136148  0.86466666     0.15200
H636        H  0.23120832  0.75068297  0.83865861     0.14900
C637        C  0.11637091  0.55460273  0.87423701    -0.17900
C638        C  0.11011340  0.57826521  0.87294405    -0.20100
C639        C  0.11938089  0.59606468  0.86411688     0.20600
C640        C  0.13410098  0.58928060  0.85634189    -0.03000
C641        C  0.14017385  0.56519694  0.85761217    -0.06100
C642        C  0.13187567  0.54825390  0.86670639     0.20800
C643        C  0.15584448  0.55906686  0.84999876     0.19000
C644        C  0.16436941  0.57634041  0.84104820    -0.17600
C645        C  0.15869489  0.60046683  0.83984435    -0.19800
C646        C  0.14413832  0.60752619  0.84753096     0.20500
C647        C  0.14088166  0.63341509  0.84681361    -0.32800
C648        C  0.12742017  0.64100644  0.85475058     0.01200
C649        C  0.11567605  0.62154118  0.86318687    -0.24100
C650        C  0.14052520  0.52631093  0.86831951    -0.28700
C651        C  0.15747221  0.52118789  0.86097832     0.06800
C652        C  0.16406969  0.53685121  0.85168621    -0.27400
H653        H  0.10975302  0.54176110  0.88124252     0.11600
H654        H  0.09880479  0.58322530  0.87898256     0.12700
H655        H  0.17630648  0.57182461  0.83510900     0.11800
H656        H  0.16638645  0.61409258  0.83300817     0.11000
H657        H  0.15013143  0.64845427  0.84032063     0.16400
H658        H  0.10564316  0.62748452  0.86939067     0.12300
H659        H  0.13525848  0.51421856  0.87546667     0.15200
H660        H  0.17707069  0.53295601  0.84596613     0.14900
C661        C  0.12895160  0.85857156  0.84396486    -0.17900
C662        C  0.12495131  0.87836819  0.83762958    -0.20100
C663        C  0.11057242  0.86805853  0.82803859     0.20600
C664        C  0.10005699  0.83743743  0.82481208    -0.03000
C665        C  0.10388481  0.81737576  0.83123881    -0.06100
C666        C  0.11847851  0.82806914  0.84084332     0.20800
C667        C  0.09340416  0.78675915  0.82801121     0.19000
C668        C  0.07919054  0.77650317  0.81839880    -0.17600
C669        C  0.07541988  0.79638707  0.81202759    -0.19800
C670        C  0.08579286  0.82687497  0.81515761     0.20500
C671        C  0.08205576  0.84693360  0.80881490    -0.32800
C672        C  0.09221199  0.87740067  0.81200167     0.01200
C673        C  0.10647574  0.88779541  0.82163006    -0.24100
C674        C  0.12287593  0.80828365  0.84708402    -0.28700
C675        C  0.11299373  0.77793469  0.84385649     0.06800
C676        C  0.09789251  0.76717586  0.83436479    -0.27400
H677        H  0.14029894  0.86714895  0.85130755     0.11600
H678        H  0.13319894  0.90179657  0.84022236     0.12700
H679        H  0.07110141  0.75312382  0.81578572     0.11800
H680        H  0.06440876  0.78791866  0.80463679     0.11000
H681        H  0.07088040  0.83867896  0.80142946     0.16400
H682        H  0.11426378  0.91119395  0.82415373     0.12300
H683        H  0.13477831  0.81682569  0.85435712     0.15200
H684        H  0.09055980  0.74393267  0.83178383     0.14900
C685        C  0.89583013  0.16115706  0.75013132    -0.17900
C686        C  0.90778941  0.16930476  0.76004885    -0.20100
C687        C  0.93985190  0.18992412  0.76181446     0.20600
C688        C  0.95991869  0.20341187  0.75352599    -0.03000
C689        C  0.94771573  0.19573194  0.74351504    -0.06100
C690        C  0.91565123  0.17390266  0.74181624     0.20800
C691        C  0.96786469  0.20873677  0.73521639     0.19000
C692        C  0.99986880  0.22964379  0.73699709    -0.17600
C693        C  0.01206992  0.23665855  0.74691186    -0.19800
C694        C  0.99240219  0.22322439  0.75521991     0.20500
C695        C  0.00479046  0.22766116  0.76512677    -0.32800
C696        C  0.98495464  0.21315764  0.77333372     0.01200
C697        C  0.95245008  0.19564415  0.77168487    -0.24100
C698        C  0.90427623  0.16422403  0.73185784    -0.28700
C699        C  0.92442103  0.17654407  0.72357565     0.06800
C700        C  0.95595078  0.19948358  0.72529746    -0.27400
H701        H  0.87116231  0.14443502  0.74896637     0.11600
H702        H  0.89211876  0.15865198  0.76633999     0.12700
H703        H  0.01564459  0.23981973  0.73070574     0.11800
H704        H  0.03700802  0.25202482  0.74807058     0.11000
H705        H  0.02986673  0.24101778  0.76639855     0.16400
H706        H  0.93714971  0.18397697  0.77799251     0.12300
H707        H  0.87999199  0.14637791  0.73056480     0.15200
H708        H  0.97168254  0.20863528  0.71894932     0.14900
C709        C  0.76999748  0.14634648  0.67846696    -0.17900
C710        C  0.75105645  0.15286324  0.67245519    -0.20100
C711        C  0.76129973  0.16681249  0.66298489     0.20600
C712        C  0.79079688  0.17400155  0.65947342    -0.03000
C713        C  0.80995706  0.16746928  0.66555527    -0.06100
C714        C  0.79954281  0.15377791  0.67512305     0.20800
C715        C  0.83960953  0.17491327  0.66211458     0.19000
C716        C  0.84953240  0.18824377  0.65253377    -0.17600
C717        C  0.83055316  0.19477987  0.64650892    -0.19800
C718        C  0.80126908  0.18798767  0.64994386     0.20500
C719        C  0.78232625  0.19504892  0.64406019    -0.32800
C720        C  0.75294908  0.18801526  0.64755373     0.01200
C721        C  0.74259616  0.17382399  0.65700185    -0.24100
C722        C  0.81894404  0.14801196  0.68123239    -0.28700
C723        C  0.84878073  0.15595541  0.67796994     0.06800
C724        C  0.85887726  0.16915452  0.66835783    -0.27400
H725        H  0.76163527  0.13571956  0.68577948     0.11600
H726        H  0.72843640  0.14713096  0.67524003     0.12700
H727        H  0.87212106  0.19390789  0.64974086     0.11800
H728        H  0.83887775  0.20534518  0.63918633     0.11000
H729        H  0.79043255  0.20600105  0.63677206     0.16400
H730        H  0.72004822  0.16847657  0.65975253     0.12300
H731        H  0.81087567  0.13752866  0.68858616     0.15200
H732        H  0.88166365  0.17487679  0.66573524     0.14900
C733        C  0.74536267  0.75650774  0.75630225    -0.17900
C734        C  0.75601536  0.75104790  0.74721306    -0.20100
C735        C  0.75189556  0.76247991  0.73802998     0.20600
C736        C  0.73495307  0.77768922  0.73790886    -0.03000
C737        C  0.72458359  0.78357673  0.74709775    -0.06100
C738        C  0.73066065  0.77372706  0.75636629     0.20800
C739        C  0.71040648  0.80146039  0.74707962     0.19000
C740        C  0.70446078  0.81113387  0.73782435    -0.17600
C741        C  0.71430010  0.80490698  0.72871132    -0.19800
C742        C  0.73046652  0.78912466  0.72871960     0.20500
C743        C  0.74422394  0.78665853  0.71984461    -0.32800
C744        C  0.76358930  0.77421226  0.72012619     0.01200
C745        C  0.76632945  0.76103365  0.72913375    -0.24100
C746        C  0.72442528  0.78354831  0.76555194    -0.28700
C747        C  0.71350259  0.80415990  0.76556108     0.06800
C748        C  0.70491206  0.81159937  0.75632331    -0.27400
H749        H  0.75001989  0.74858540  0.76334444     0.11600
H750        H  0.76862093  0.73899817  0.74743093     0.12700
H751        H  0.69337950  0.82465815  0.73766983     0.11800
H752        H  0.71055094  0.81371094  0.72170882     0.11000
H753        H  0.74221177  0.79704807  0.71292960     0.16400
H754        H  0.78114661  0.75131946  0.72935694     0.12300
H755        H  0.73124389  0.77783958  0.77265484     0.15200
H756        H  0.69636380  0.82735462  0.75630324     0.14900
C757        C  0.83046906  0.94396012  0.71291261    -0.17900
C758        C  0.83580178  0.97394775  0.71273216    -0.20100
C759        C  0.84210014  0.98987975  0.70355628     0.20600
C760        C  0.84217724  0.97518901  0.69442339    -0.03000
C761        C  0.83657562  0.94484497  0.69459526    -0.06100
C762        C  0.83117198  0.92939579  0.70391068     0.20800
C763        C  0.83729883  0.93033713  0.68549658     0.19000
C764        C  0.84318380  0.94616375  0.67630667    -0.17600
C765        C  0.84899749  0.97636599  0.67614792    -0.19800
C766        C  0.84891488  0.99118747  0.68517314     0.20500
C767        C  0.85675438  0.02213568  0.68518173    -0.32800
C768        C  0.85808433  0.03724932  0.69432661     0.01200
C769        C  0.84967834  0.02069597  0.70342291    -0.24100
C770        C  0.82734392  0.89996239  0.70409592    -0.28700
C771        C  0.82856701  0.88560892  0.69509297     0.06800
C772        C  0.83294733  0.90061119  0.68579284    -0.27400
H773        H  0.82624547  0.93232209  0.72011660     0.11600
H774        H  0.83566776  0.98492913  0.71980094     0.12700
H775        H  0.84382860  0.93537826  0.66926090     0.11800
H776        H  0.85409527  0.98833050  0.66898518     0.11000
H777        H  0.86312725  0.03483241  0.67814179     0.16400
H778        H  0.85068088  0.03228153  0.71049290     0.12300
H779        H  0.82382797  0.88835310  0.71128507     0.15200
H780        H  0.83412584  0.88965200  0.67885844     0.14900
C781        C  0.75928622  0.39965207  0.64836148    -0.17900
C782        C  0.75490864  0.37000227  0.64851547    -0.20100
C783        C  0.75295319  0.35448296  0.63941609     0.20600
C784        C  0.75658853  0.36935878  0.63007561    -0.03000
C785        C  0.76088984  0.39920917  0.62991797    -0.06100
C786        C  0.76175588  0.41424375  0.63910358     0.20800
C787        C  0.76297134  0.41342051  0.62055016     0.19000
C788        C  0.76219831  0.39840786  0.61146508    -0.17600
C789        C  0.75801638  0.36885615  0.61162472    -0.19800
C790        C  0.75446282  0.35385252  0.62087139     0.20500
C791        C  0.74719737  0.32307650  0.62106004    -0.32800
C792        C  0.74167982  0.30757509  0.63032280     0.01200
C793        C  0.74581455  0.32378628  0.63947707    -0.24100
C794        C  0.76383892  0.44301387  0.63883530    -0.28700
C795        C  0.76427643  0.45638087  0.62949036     0.06800
C796        C  0.76456796  0.44184459  0.62040792    -0.27400
H797        H  0.75997158  0.41085270  0.65547531     0.11600
H798        H  0.75224234  0.35888247  0.65574764     0.12700
H799        H  0.76402464  0.40919471  0.60421968     0.11800
H800        H  0.75664140  0.35736964  0.60449932     0.11000
H801        H  0.74421847  0.31071585  0.61398157     0.16400
H802        H  0.74178639  0.31199070  0.64664573     0.12300
H803        H  0.76357773  0.45422400  0.64583825     0.15200
H804        H  0.76528576  0.45236287  0.61318968     0.14900
C805        C  0.76459763  0.69285566  0.65421422    -0.17900
C806        C  0.76022215  0.66936712  0.64750590    -0.20100
C807        C  0.77572261  0.65331985  0.64917686     0.20600
C808        C  0.79616887  0.66123074  0.65760815    -0.03000
C809        C  0.80057434  0.68493638  0.66438369    -0.06100
C810        C  0.78455504  0.70068541  0.66269977     0.20800
C811        C  0.82071790  0.69263261  0.67288970     0.19000
C812        C  0.83672738  0.67701301  0.67443924    -0.17600
C813        C  0.83227868  0.65343242  0.66773611    -0.19800
C814        C  0.81179295  0.64512568  0.65936102     0.20500
C815        C  0.80613744  0.62062046  0.65282656    -0.32800
C816        C  0.78522127  0.61222221  0.64454418     0.01200
C817        C  0.77058651  0.62906446  0.64267445    -0.24100
C818        C  0.78867854  0.72390416  0.66954227    -0.28700
C819        C  0.80839776  0.73140034  0.67808966     0.06800
C820        C  0.82438423  0.71571726  0.67970960    -0.27400
H821        H  0.75219731  0.70476191  0.65280108     0.11600
H822        H  0.74446450  0.66354622  0.64105468     0.12700
H823        H  0.85245976  0.68282241  0.68089794     0.11800
H824        H  0.84460311  0.64145957  0.66916565     0.11000
H825        H  0.81756918  0.60777800  0.65427959     0.16400
H826        H  0.75440978  0.62269615  0.63630901     0.12300
H827        H  0.77645657  0.73605771  0.66823879     0.15200
H828        H  0.83994583  0.72169684  0.68623134     0.14900
C829        C  0.57701541  0.23146320  0.65485952    -0.17900
C830        C  0.55269013  0.23741376  0.65461240    -0.20100
C831        C  0.53144525  0.22706255  0.64638014     0.20600
C832        C  0.53367071  0.20907321  0.63860077    -0.03000
C833        C  0.55817222  0.20303964  0.63885640    -0.06100
C834        C  0.58051065  0.21505644  0.64687681     0.20800
C835        C  0.56139765  0.18663433  0.63075626     0.19000
C836        C  0.53922503  0.17484970  0.62279866    -0.17600
C837        C  0.51499356  0.18082635  0.62254655    -0.19800
C838        C  0.51254087  0.19864864  0.63025497     0.20500
C839        C  0.49047292  0.20766319  0.62947159    -0.32800
C840        C  0.48943468  0.22721397  0.63686901     0.01200
C841        C  0.50915734  0.23580827  0.64550266    -0.24100
C842        C  0.60695005  0.21222017  0.64640468    -0.28700
C843        C  0.61141759  0.19811293  0.63789998     0.06800
C844        C  0.58782490  0.18408126  0.63038638    -0.27400
H845        H  0.59375288  0.24067142  0.66111375     0.11600
H846        H  0.55115418  0.25105388  0.66069145     0.12700
H847        H  0.54130888  0.16200496  0.61656560     0.11800
H848        H  0.49882442  0.17243213  0.61613375     0.11000
H849        H  0.47520288  0.20077056  0.62283895     0.16400
H850        H  0.50836816  0.25074547  0.65127010     0.12300
H851        H  0.62506346  0.22300217  0.65222800     0.15200
H852        H  0.59098674  0.17279671  0.62388590     0.14900
C853        C  0.60897880  0.43434277  0.65149944    -0.17900
C854        C  0.57799809  0.41020127  0.65252137    -0.20100
C855        C  0.55701819  0.40073894  0.64425579     0.20600
C856        C  0.56693707  0.41677175  0.63500706    -0.03000
C857        C  0.59838608  0.44080093  0.63392017    -0.06100
C858        C  0.61956681  0.44917598  0.64216362     0.20800
C859        C  0.60898065  0.45526929  0.62445027     0.19000
C860        C  0.58761626  0.44664025  0.61630995    -0.17600
C861        C  0.55634944  0.42307266  0.61741917    -0.19800
C862        C  0.54596540  0.40752509  0.62666122     0.20500
C863        C  0.51572214  0.38148767  0.62748410    -0.32800
C864        C  0.50681156  0.36377490  0.63636580     0.01200
C865        C  0.52705618  0.37421296  0.64485301    -0.24100
C866        C  0.65126203  0.47112816  0.64080848    -0.28700
C867        C  0.66235417  0.48442477  0.63126586     0.06800
C868        C  0.64094836  0.47704137  0.62318008    -0.27400
H869        H  0.62495071  0.44065667  0.65791532     0.11600
H870        H  0.57070777  0.39829233  0.65968803     0.12700
H871        H  0.59526440  0.45756658  0.60900207     0.11800
H872        H  0.54055500  0.41624203  0.61093262     0.11000
H873        H  0.50029607  0.37324200  0.62087232     0.16400
H874        H  0.52023978  0.36052567  0.65168868     0.12300
H875        H  0.66755650  0.47678374  0.64709711     0.15200
H876        H  0.64930902  0.48725591  0.61581201     0.14900
C877        C  0.18118787  0.06623573  0.75118984    -0.17900
C878        C  0.17259161  0.05096386  0.76048881    -0.20100
C879        C  0.15990163  0.01884813  0.76090738     0.20600
C880        C  0.15731532  0.00220372  0.75195248    -0.03000
C881        C  0.16674364  0.01776661  0.74260894    -0.06100
C882        C  0.17773641  0.04974075  0.74217433     0.20800
C883        C  0.16343217  0.00095508  0.73362541     0.19000
C884        C  0.15157280  0.96901155  0.73408246    -0.17600
C885        C  0.14151217  0.95348511  0.74328940    -0.19800
C886        C  0.14363405  0.96973359  0.75222523     0.20500
C887        C  0.13074085  0.95391990  0.76128898    -0.32800
C888        C  0.13214291  0.97028203  0.77012497     0.01200
C889        C  0.14799420  0.00283020  0.76999040    -0.24100
C890        C  0.18324976  0.06414578  0.73268937    -0.28700
C891        C  0.17846226  0.04704355  0.72368466     0.06800
C892        C  0.17007348  0.01589973  0.72426298    -0.27400
H893        H  0.18977397  0.09080495  0.75101827     0.11600
H894        H  0.17475299  0.06408418  0.76730162     0.12700
H895        H  0.14892728  0.95579879  0.72724395     0.11800
H896        H  0.13131612  0.92862377  0.74337082     0.11000
H897        H  0.11848132  0.92884158  0.76137533     0.16400
H898        H  0.14871836  0.01549325  0.77676137     0.12300
H899        H  0.18966008  0.08814926  0.73228296     0.15200
H900        H  0.16601609  0.00249364  0.71734966     0.14900
C901        C  0.05129837  0.11208080  0.67289946    -0.17900
C902        C  0.02686052  0.11786047  0.67282856    -0.20100
C903        C  0.02215058  0.13204699  0.68123547     0.20600
C904        C  0.04337272  0.14208494  0.68955168    -0.03000
C905        C  0.06822029  0.13656692  0.68957259    -0.06100
C906        C  0.07156265  0.12058094  0.68135053     0.20800
C907        C  0.08851063  0.14534768  0.69810029     0.19000
C908        C  0.08483708  0.16099183  0.70627618    -0.17600
C909        C  0.06002265  0.16611466  0.70631021    -0.19800
C910        C  0.03868356  0.15593568  0.69812397     0.20500
C911        C  0.01180056  0.15774147  0.69861634    -0.32800
C912        C  0.98970449  0.14623482  0.69061585     0.01200
C913        C  0.99564312  0.13469906  0.68174975    -0.24100
C914        C  0.09379180  0.11170078  0.68201358    -0.28700
C915        C  0.11245398  0.11839110  0.69083292     0.06800
C916        C  0.11075395  0.13654432  0.69861024    -0.27400
H917        H  0.05369756  0.10002187  0.66648427     0.11600
H918        H  0.01094007  0.11017208  0.66635700     0.12700
H919        H  0.10038131  0.16811760  0.71283787     0.11800
H920        H  0.05691092  0.17710413  0.71289467     0.11000
H921        H  0.00735191  0.16690444  0.70542330     0.16400
H922        H  0.97854085  0.12571219  0.67559086     0.12300
H923        H  0.09520766  0.09796300  0.67593792     0.15200
H924        H  0.12527372  0.14203292  0.70538025     0.14900
C925        C  0.98351449  0.91267523  0.71518084    -0.17900
C926        C  0.01352356  0.93894074  0.71492713    -0.20100
C927        C  0.03000238  0.94801524  0.70581674     0.20600
C928        C  0.01645762  0.93013239  0.69690515    -0.03000
C929        C  0.98593828  0.90383062  0.69713032    -0.06100
C930        C  0.96937796  0.89524437  0.70630970     0.20800
C931        C  0.97155598  0.88690645  0.68811156     0.19000
C932        C  0.98839995  0.89557772  0.67905505    -0.17600
C933        C  0.01889930  0.92135320  0.67887052    -0.19800
C934        C  0.03296423  0.93912989  0.68771163     0.20500
C935        C  0.06274388  0.96628019  0.68746897    -0.32800
C936        C  0.07571304  0.98482137  0.69625172     0.01200
C937        C  0.05940737  0.97518925  0.70541722    -0.24100
C938        C  0.93842960  0.87034776  0.70637876    -0.28700
C939        C  0.92331151  0.85474430  0.69732707     0.06800
C940        C  0.94017104  0.86257462  0.68824765    -0.27400
H941        H  0.97105763  0.90643420  0.72227146     0.11600
H942        H  0.02367651  0.95243683  0.72183423     0.12700
H943        H  0.97777921  0.88275518  0.67206893     0.11800
H944        H  0.03120041  0.92783065  0.67175392     0.11000
H945        H  0.07519892  0.97363682  0.68038818     0.16400
H946        H  0.06940024  0.98922392  0.71224366     0.12300
H947        H  0.92540811  0.86458883  0.71335875     0.15200
H948        H  0.92851723  0.85053333  0.68123999     0.14900
C949        C  0.30307269  0.20110322  0.67822661    -0.17900
C950        C  0.32699675  0.22103668  0.67177949    -0.20100
C951        C  0.32980684  0.21066055  0.66218728     0.20600
C952        C  0.30808695  0.17997053  0.65900018    -0.03000
C953        C  0.28385532  0.15982560  0.66551346    -0.06100
C954        C  0.28150104  0.17048609  0.67517745     0.20800
C955        C  0.26207975  0.12907679  0.66237645     0.19000
C956        C  0.26477574  0.11884822  0.65272420    -0.17600
C957        C  0.28895796  0.13876126  0.64629205    -0.19800
C958        C  0.31083252  0.16930849  0.64937790     0.20500
C959        C  0.33582578  0.18915453  0.64313855    -0.32800
C960        C  0.35804143  0.21949993  0.64641381     0.01200
C961        C  0.35444135  0.23023924  0.65585063    -0.24100
C962        C  0.25741206  0.15052270  0.68160149    -0.28700
C963        C  0.23522930  0.12002940  0.67850637     0.06800
C964        C  0.23785711  0.10931444  0.66890449    -0.27400
H965        H  0.30146449  0.20963810  0.68561519     0.11600
H966        H  0.34348225  0.24452024  0.67433579     0.12700
H967        H  0.24824481  0.09538778  0.65016136     0.11800
H968        H  0.29066739  0.13019382  0.63892247     0.11000
H969        H  0.33847064  0.18071285  0.63586735     0.16400
H970        H  0.37149782  0.25353605  0.65844013     0.12300
H971        H  0.25553707  0.15904855  0.68896342     0.15200
H972        H  0.22074482  0.08590372  0.66643963     0.14900
C973        C  0.22127871  0.43212153  0.92945972    -0.17900
C974        C  0.20600530  0.42698849  0.92005406    -0.20100
C975        C  0.22300446  0.43497817  0.91104554     0.20600
C976        C  0.25534153  0.44615417  0.91147938    -0.03000
C977        C  0.27085153  0.45195725  0.92096498    -0.06100
C978        C  0.25383476  0.44571775  0.92999709     0.20800
C979        C  0.30370381  0.46640569  0.92139874     0.19000
C980        C  0.32037570  0.47226125  0.91238508    -0.17600
C981        C  0.30491836  0.46583895  0.90298596    -0.19800
C982        C  0.27264724  0.45391590  0.90247282     0.20500
C983        C  0.25791275  0.45201874  0.89318563    -0.32800
C984        C  0.22657578  0.44408357  0.89285075     0.01200
C985        C  0.20883625  0.43428133  0.90171373    -0.24100
C986        C  0.26994430  0.45563579  0.93933736    -0.28700
C987        C  0.30278821  0.47303524  0.93966236     0.06800
C988        C  0.31948995  0.47706159  0.93075828    -0.27400
H989        H  0.20785068  0.42699361  0.93632603     0.11600
H990        H  0.18111541  0.41799357  0.91985143     0.12700
H991        H  0.34554162  0.48301346  0.91259664     0.11800
H992        H  0.31846815  0.47172908  0.89612559     0.11000
H993        H  0.27166876  0.45962374  0.88635379     0.16400
H994        H  0.18457467  0.42786829  0.90143663     0.12300
H995        H  0.25703795  0.45271701  0.94621065     0.15200
H996        H  0.34481179  0.49035417  0.93103370     0.14900
C997        C  0.43426303  0.48642097  0.01090216    -0.17900
C998        C  0.41206276  0.48949370  0.00538365    -0.20100
C999        C  0.41678894  0.49772186  0.99512376     0.20600
C1000       C  0.44426782  0.50311891  0.99038845    -0.03000
C1001       C  0.46662390  0.49991982  0.99594773    -0.06100
C1002       C  0.46148416  0.49134317  0.00623496     0.20800
C1003       C  0.49385152  0.50481089  0.99116287     0.19000
C1004       C  0.49870600  0.51330489  0.98092909    -0.17600
C1005       C  0.47666271  0.51668421  0.97544004    -0.19800
C1006       C  0.44937379  0.51160831  0.98009171     0.20500
C1007       C  0.42728553  0.51522548  0.97466682    -0.32800
C1008       C  0.40005549  0.51027598  0.97938108     0.01200
C1009       C  0.39472795  0.50104342  0.98955905    -0.24100
C1010       C  0.48314725  0.48685606  0.01156971    -0.28700
C1011       C  0.50963946  0.49037215  0.00670755     0.06800
C1012       C  0.51525363  0.50016687  0.99659154    -0.27400
H1013       H  0.42996312  0.47983486  0.01879505     0.11600
H1014       H  0.39115983  0.48539672  0.00914233     0.12700
H1015       H  0.51945852  0.51710331  0.97714208     0.11800
H1016       H  0.48093281  0.52320927  0.96754147     0.11000
H1017       H  0.43146145  0.52224883  0.96680413     0.16400
H1018       H  0.37383369  0.49731131  0.99323673     0.12300
H1019       H  0.47872498  0.47941658  0.01938831     0.15200
H1020       H  0.53567951  0.50303674  0.99282066     0.14900
C1021       C  0.51747935  0.31207226  0.04447182    -0.17900
C1022       C  0.51299242  0.28241389  0.04476942    -0.20100
C1023       C  0.50202030  0.26304070  0.03613256     0.20600
C1024       C  0.49413693  0.27301930  0.02724745    -0.03000
C1025       C  0.49866399  0.30297393  0.02694867    -0.06100
C1026       C  0.51108185  0.32281087  0.03553211     0.20800
C1027       C  0.49217367  0.31357115  0.01792003     0.19000
C1028       C  0.47986546  0.29362973  0.00943546    -0.17600
C1029       C  0.47525482  0.26387135  0.00974549    -0.19800
C1030       C  0.48293805  0.25357395  0.01853815     0.20500
C1031       C  0.48064075  0.22466588  0.01867624    -0.32800
C1032       C  0.48982891  0.21528267  0.02737204     0.01200
C1033       C  0.49979868  0.23430112  0.03612993    -0.24100
C1034       C  0.51849970  0.35354377  0.03485459    -0.28700
C1035       C  0.51406035  0.36483859  0.02567503     0.06800
C1036       C  0.49969474  0.34440871  0.01736622    -0.27400
H1037       H  0.52682425  0.32694318  0.05114511     0.11600
H1038       H  0.51887556  0.27492781  0.05167705     0.12700
H1039       H  0.47459187  0.30134723  0.00246194     0.11800
H1040       H  0.46643301  0.24920738  0.00301789     0.11000
H1041       H  0.47274085  0.20999500  0.01193646     0.16400
H1042       H  0.50650076  0.22701440  0.04291816     0.12300
H1043       H  0.52943361  0.36914831  0.04130071     0.15200
H1044       H  0.49617478  0.35297927  0.01026991     0.14900
C1045       C  0.46624282  0.90984774  0.90706323    -0.17900
C1046       C  0.47305673  0.90423912  0.89728819    -0.20100
C1047       C  0.48362050  0.88371510  0.89575321     0.20600
C1048       C  0.48934848  0.87032117  0.90421520    -0.03000
C1049       C  0.48308885  0.87649574  0.91410056    -0.06100
C1050       C  0.47025378  0.89533622  0.91548711     0.20800
C1051       C  0.48777389  0.86219892  0.92251784     0.19000
C1052       C  0.49973448  0.84283876  0.92103609    -0.17600
C1053       C  0.50529717  0.83622281  0.91123837    -0.19800
C1054       C  0.49941989  0.84920674  0.90276670     0.20500
C1055       C  0.50155718  0.83997727  0.89288537    -0.32800
C1056       C  0.49405352  0.85180335  0.88442970     0.01200
C1057       C  0.48657044  0.87478228  0.88590885    -0.24100
C1058       C  0.45987835  0.89769640  0.92514477    -0.28700
C1059       C  0.46308578  0.88217837  0.93344209     0.06800
C1060       C  0.47848243  0.86581899  0.93216866    -0.27400
H1061       H  0.45683924  0.92471867  0.90799106     0.11600
H1062       H  0.46876896  0.91492520  0.89088219     0.12700
H1063       H  0.50355317  0.83176484  0.92742693     0.11800
H1064       H  0.51327933  0.82018149  0.91027040     0.11000
H1065       H  0.50743258  0.82235795  0.89179277     0.16400
H1066       H  0.48057027  0.88387696  0.87942593     0.12300
H1067       H  0.44813034  0.91042622  0.92612287     0.15200
H1068       H  0.48074869  0.85360572  0.93853618     0.14900
C1069       C  0.39648871  0.68605464  0.94434382    -0.17900
C1070       C  0.40158485  0.71595655  0.94399073    -0.20100
C1071       C  0.40496081  0.73248113  0.95298698     0.20600
C1072       C  0.40398031  0.71910382  0.96244054    -0.03000
C1073       C  0.39834178  0.68870403  0.96279824    -0.06100
C1074       C  0.39432642  0.67204335  0.95369910     0.20800
C1075       C  0.39575149  0.67466167  0.97224637     0.19000
C1076       C  0.39989283  0.69151604  0.98123966    -0.17600
C1077       C  0.40600054  0.72184477  0.98088401    -0.19800
C1078       C  0.40771155  0.73573656  0.97153148     0.20500
C1079       C  0.41209863  0.76553142  0.97109750    -0.32800
C1080       C  0.41167696  0.77830126  0.96170191     0.01200
C1081       C  0.40846876  0.76180538  0.95269265    -0.24100
C1082       C  0.38704995  0.64128493  0.95410370    -0.28700
C1083       C  0.38302759  0.62667356  0.96347779     0.06800
C1084       C  0.38806019  0.64371348  0.97252641    -0.27400
H1085       H  0.39352417  0.67361069  0.93729250     0.11600
H1086       H  0.40247042  0.72601151  0.93667338     0.12700
H1087       H  0.39803092  0.68110277  0.98855882     0.11800
H1088       H  0.40876438  0.73421475  0.98793450     0.11000
H1089       H  0.41436036  0.77814092  0.97805278     0.16400
H1090       H  0.40835232  0.77171925  0.94543029     0.12300
H1091       H  0.38312169  0.62828566  0.94710447     0.15200
H1092       H  0.38497263  0.63259287  0.97978572     0.14900
C1093       C  0.47157508  0.98846723  0.01071177    -0.17900
C1094       C  0.46779874  0.96534828  0.00392301    -0.20100
C1095       C  0.45313722  0.96154832  0.99444148     0.20600
C1096       C  0.44158741  0.98085292  0.99186194    -0.03000
C1097       C  0.44531985  0.00414796  0.99873099    -0.06100
C1098       C  0.46075397  0.00819204  0.00813750     0.20800
C1099       C  0.43432730  0.02386937  0.99607815     0.19000
C1100       C  0.41885451  0.01947112  0.98671638    -0.17600
C1101       C  0.41508382  0.99634000  0.97992077    -0.19800
C1102       C  0.42670324  0.97717996  0.98236890     0.20500
C1103       C  0.42368233  0.95441391  0.97549988    -0.32800
C1104       C  0.43516142  0.93508532  0.97800865     0.01200
C1105       C  0.44982380  0.93879272  0.98750699    -0.24100
C1106       C  0.46612078  0.03257776  0.01464589    -0.28700
C1107       C  0.45673598  0.05335459  0.01182476     0.06800
C1108       C  0.44002459  0.04831034  0.00266111    -0.27400
H1109       H  0.48340458  0.99122761  0.01792138     0.11600
H1110       H  0.47664431  0.95063334  0.00605021     0.12700
H1111       H  0.41011746  0.03426651  0.98457379     0.11800
H1112       H  0.40337246  0.99366295  0.97269400     0.11000
H1113       H  0.41197349  0.95145556  0.96824804     0.16400
H1114       H  0.45839678  0.92377259  0.98954403     0.12300
H1115       H  0.47886155  0.03617788  0.02172452     0.15200
H1116       H  0.43254782  0.06410075  0.00046956     0.14900
C1117       C  0.71745613  0.48758602  0.02161151    -0.17900
C1118       C  0.73931673  0.47866013  0.02308432    -0.20100
C1119       C  0.73373330  0.45041401  0.01908882     0.20600
C1120       C  0.70622655  0.43134217  0.01331596    -0.03000
C1121       C  0.68406163  0.44024053  0.01189220    -0.06100
C1122       C  0.68956465  0.46833022  0.01616640     0.20800
C1123       C  0.65582109  0.42040134  0.00657409     0.19000
C1124       C  0.65057178  0.39248820  0.00237498    -0.17600
C1125       C  0.67271534  0.38386157  0.00366991    -0.19800
C1126       C  0.70035130  0.40288498  0.00925607     0.20500
C1127       C  0.72176778  0.39352981  0.01109665    -0.32800
C1128       C  0.74868205  0.41193464  0.01711387     0.01200
C1129       C  0.75474409  0.44052721  0.02098069    -0.24100
C1130       C  0.66634769  0.47582323  0.01542537    -0.28700
C1131       C  0.63731458  0.45512676  0.01076053     0.06800
C1132       C  0.63264179  0.42799833  0.00603386    -0.27400
H1133       H  0.72201031  0.50920229  0.02495368     0.11600
H1134       H  0.76035889  0.49361982  0.02749926     0.12700
H1135       H  0.62904266  0.37701703  0.99826195     0.11800
H1136       H  0.66789937  0.36196423  0.00049370     0.11000
H1137       H  0.71697483  0.37143254  0.00810320     0.16400
H1138       H  0.77555967  0.45485475  0.02558241     0.12300
H1139       H  0.66998797  0.49660469  0.01918207     0.15200
H1140       H  0.61025803  0.41187732  0.00247405     0.14900
C1141       C  0.65968634  0.20622507  0.03846377    -0.17900
C1142       C  0.69165388  0.22758979  0.03745836    -0.20100
C1143       C  0.70326904  0.24354290  0.02834464     0.20600
C1144       C  0.68271617  0.23680206  0.02000166    -0.03000
C1145       C  0.65048318  0.21530656  0.02102239    -0.06100
C1146       C  0.63883899  0.20044858  0.03036961     0.20800
C1147       C  0.62974273  0.20997576  0.01286147     0.19000
C1148       C  0.64147406  0.22511691  0.00363940    -0.17600
C1149       C  0.67337668  0.24649870  0.00264217    -0.19800
C1150       C  0.69402047  0.25305812  0.01085289     0.20500
C1151       C  0.72513814  0.27743847  0.01036026    -0.32800
C1152       C  0.74476933  0.28632116  0.01898174     0.01200
C1153       C  0.73442629  0.26794743  0.02770759    -0.24100
C1154       C  0.60648168  0.18116343  0.03158522    -0.28700
C1155       C  0.58568293  0.17683940  0.02360700     0.06800
C1156       C  0.59752681  0.19067151  0.01419514    -0.27400
H1157       H  0.65115044  0.19491691  0.04567508     0.11600
H1158       H  0.70711962  0.23247996  0.04393324     0.12700
H1159       H  0.62584239  0.22114992  0.99729416     0.11800
H1160       H  0.68172475  0.25875968  0.99557013     0.11000
H1161       H  0.73309272  0.29149513  0.00361245     0.16400
H1162       H  0.74947810  0.27476464  0.03439531     0.12300
H1163       H  0.59746072  0.17054806  0.03886169     0.15200
H1164       H  0.58160862  0.18737725  0.00800912     0.14900
C1165       C  0.16805498  0.67924082  0.90763995    -0.17900
C1166       C  0.16073743  0.66241401  0.91658885    -0.20100
C1167       C  0.13224749  0.65253978  0.92134567     0.20600
C1168       C  0.11067924  0.65931338  0.91700968    -0.03000
C1169       C  0.11794032  0.67604656  0.90790393    -0.06100
C1170       C  0.14688044  0.68622617  0.90326666     0.20800
C1171       C  0.09627406  0.68248738  0.90342891     0.19000
C1172       C  0.06765294  0.67235259  0.90818066    -0.17600
C1173       C  0.06070222  0.65626750  0.91733367    -0.19800
C1174       C  0.08210002  0.64971961  0.92183264     0.20500
C1175       C  0.07588764  0.63449066  0.93118064    -0.32800
C1176       C  0.09776971  0.62843899  0.93562796     0.01200
C1177       C  0.12543133  0.63678651  0.93052014    -0.24100
C1178       C  0.15393298  0.70260963  0.89420522    -0.28700
C1179       C  0.13212955  0.70820918  0.88949443     0.06800
C1180       C  0.10341831  0.69836838  0.89418932    -0.27400
H1181       H  0.19026736  0.68672903  0.90411997     0.11600
H1182       H  0.17752259  0.65739660  0.91985002     0.12700
H1183       H  0.05069605  0.67699666  0.90484264     0.11800
H1184       H  0.03862034  0.64902045  0.92090684     0.11000
H1185       H  0.05451571  0.62810331  0.93510636     0.16400
H1186       H  0.14248681  0.63238153  0.93393679     0.12300
H1187       H  0.17588325  0.70966631  0.89055211     0.15200
H1188       H  0.08639589  0.70236881  0.89053196     0.14900
C1189       C  0.16055389  0.50675535  0.95678626    -0.17900
C1190       C  0.18394715  0.49958620  0.95695934    -0.20100
C1191       C  0.20680872  0.51145419  0.96471050     0.20600
C1192       C  0.20499350  0.52898299  0.97273567    -0.03000
C1193       C  0.18140268  0.53624015  0.97255234    -0.06100
C1194       C  0.15972588  0.52590595  0.96435867     0.20800
C1195       C  0.18074979  0.55545030  0.98021940     0.19000
C1196       C  0.20253845  0.56578837  0.98828519    -0.17600
C1197       C  0.22598434  0.55864463  0.98845699    -0.19800
C1198       C  0.22795092  0.54099296  0.98057546     0.20500
C1199       C  0.25353146  0.53688706  0.98001257    -0.32800
C1200       C  0.25660020  0.52167783  0.97157412     0.01200
C1201       C  0.23259564  0.50790938  0.96420045    -0.24100
C1202       C  0.13889487  0.53643535  0.96356225    -0.28700
C1203       C  0.13963075  0.55725216  0.97082394     0.06800
C1204       C  0.15959105  0.56552836  0.97936267    -0.27400
H1205       H  0.14387185  0.49833975  0.95051321     0.11600
H1206       H  0.18490141  0.48580113  0.95080959     0.12700
H1207       H  0.20217142  0.58038163  0.99426593     0.11800
H1208       H  0.24325364  0.56788472  0.99455861     0.11000
H1209       H  0.27218845  0.54763673  0.98566247     0.16400
H1210       H  0.23495669  0.49596384  0.95772929     0.12300
H1211       H  0.12326261  0.52971027  0.95702760     0.15200
H1212       H  0.16004325  0.58138033  0.98503214     0.14900
C1213       C  0.20989453  0.75604930  0.95272477    -0.17900
C1214       C  0.24108588  0.77935761  0.95139574    -0.20100
C1215       C  0.26322134  0.78699174  0.95921719     0.20600
C1216       C  0.25353132  0.77202979  0.96865061    -0.03000
C1217       C  0.22214602  0.74822573  0.96994902    -0.06100
C1218       C  0.20040193  0.73982359  0.96186654     0.20800
C1219       C  0.21305333  0.73145386  0.97907579     0.19000
C1220       C  0.23480156  0.74022212  0.98709483    -0.17600
C1221       C  0.26577717  0.76421363  0.98587599    -0.19800
C1222       C  0.27554744  0.77952311  0.97657816     0.20500
C1223       C  0.30720485  0.80086392  0.97487554    -0.32800
C1224       C  0.31727787  0.81421316  0.96527327     0.01200
C1225       C  0.29507358  0.80804096  0.95759136    -0.24100
C1226       C  0.17023344  0.71389003  0.96278463    -0.28700
C1227       C  0.16212680  0.69537960  0.97145082     0.06800
C1228       C  0.18312396  0.70488594  0.97973066    -0.27400
H1229       H  0.19345642  0.74986835  0.94645293     0.11600
H1230       H  0.24808070  0.79074637  0.94413590     0.12700
H1231       H  0.22812954  0.72781918  0.99418334     0.11800
H1232       H  0.28238195  0.76990648  0.99206464     0.11000
H1233       H  0.32419623  0.80570346  0.98086756     0.16400
H1234       H  0.30269502  0.81846559  0.95020893     0.12300
H1235       H  0.15418436  0.70630408  0.95633576     0.15200
H1236       H  0.17686305  0.69052202  0.98640029     0.14900
C1237       C  0.96840422  0.54429100  0.00296155    -0.17900
C1238       C  0.94363106  0.52246226  0.00877222    -0.20100
C1239       C  0.92770469  0.49095304  0.00604019     0.20600
C1240       C  0.93651735  0.48127197  0.99731766    -0.03000
C1241       C  0.96130959  0.50334528  0.99139395    -0.06100
C1242       C  0.97747684  0.53497775  0.99428295     0.20800
C1243       C  0.97008485  0.49373271  0.98264464     0.19000
C1244       C  0.95407893  0.46222159  0.97989349    -0.17600
C1245       C  0.92955050  0.44031233  0.98579129    -0.19800
C1246       C  0.92059565  0.44957234  0.99452441     0.20500
C1247       C  0.89588323  0.42779826  0.00047555    -0.32800
C1248       C  0.88690303  0.43743239  0.00913861     0.01200
C1249       C  0.90300619  0.46901299  0.01186737    -0.24100
C1250       C  0.00271479  0.55665938  0.98853316    -0.28700
C1251       C  0.01173513  0.54713299  0.97988172     0.06800
C1252       C  0.99505366  0.51573098  0.97689926    -0.27400
H1253       H  0.98052019  0.56845773  0.00527155     0.11600
H1254       H  0.93702261  0.53021246  0.01544210     0.12700
H1255       H  0.96063046  0.45449882  0.97320312     0.11800
H1256       H  0.91758372  0.41611815  0.98352197     0.11000
H1257       H  0.88333058  0.40351511  0.99827732     0.16400
H1258       H  0.89605122  0.47664301  0.01848960     0.12300
H1259       H  0.01562028  0.58082989  0.99087256     0.15200
H1260       H  0.00213444  0.50822293  0.97027717     0.14900
C1261       C  0.68802874  0.18056547  0.57687672    -0.17900
C1262       C  0.67213600  0.17351937  0.56754331    -0.20100
C1263       C  0.63986116  0.15213135  0.56693848     0.20600
C1264       C  0.62357374  0.13673858  0.57573695    -0.03000
C1265       C  0.63979048  0.14337371  0.58514059    -0.06100
C1266       C  0.67197291  0.16606674  0.58573894     0.20800
C1267       C  0.62347430  0.12864588  0.59401894     0.19000
C1268       C  0.59133118  0.10660487  0.59333993    -0.17600
C1269       C  0.57514276  0.10047005  0.58404776    -0.19800
C1270       C  0.59088674  0.11592751  0.57523159     0.20500
C1271       C  0.57450903  0.11194422  0.56602054    -0.32800
C1272       C  0.59073789  0.12766113  0.55728230     0.01200
C1273       C  0.62344185  0.14693737  0.55776097    -0.24100
C1274       C  0.68705979  0.17539691  0.59524867    -0.28700
C1275       C  0.67041853  0.16240043  0.60417582     0.06800
C1276       C  0.63909446  0.13783746  0.60348171    -0.27400
H1277       H  0.71272740  0.19796780  0.57720231     0.11600
H1278       H  0.68492558  0.18554164  0.56084123     0.12700
H1279       H  0.57845230  0.09497557  0.60007437     0.11800
H1280       H  0.55016209  0.08416725  0.58380748     0.11000
H1281       H  0.54929132  0.09710582  0.56567515     0.16400
H1282       H  0.63597975  0.15947578  0.55107859     0.12300
H1283       H  0.71121482  0.19425567  0.59574463     0.15200
H1284       H  0.62608136  0.12785914  0.61035091     0.14900
C1285       C  0.50820047  0.04075904  0.48575055    -0.17900
C1286       C  0.49136007  0.01540801  0.47916385    -0.20100
C1287       C  0.46518774  0.98808260  0.48258890     0.20600
C1288       C  0.45553509  0.98643386  0.49270455    -0.03000
C1289       C  0.47256181  0.01202963  0.49936009    -0.06100
C1290       C  0.49916807  0.03918469  0.49587252     0.20800
C1291       C  0.46312056  0.01035943  0.50950793     0.19000
C1292       C  0.43654009  0.98323865  0.51286469    -0.17600
C1293       C  0.41969283  0.95782954  0.50627026    -0.19800
C1294       C  0.42910269  0.95911880  0.49619938     0.20500
C1295       C  0.41280353  0.93349043  0.48959648    -0.32800
C1296       C  0.42270323  0.93480639  0.47956505     0.01200
C1297       C  0.44874768  0.96227829  0.47610259    -0.24100
C1298       C  0.51635984  0.06426867  0.50256639    -0.28700
C1299       C  0.50725214  0.06274698  0.51269879     0.06800
C1300       C  0.48048357  0.03579221  0.51611062    -0.27400
H1301       H  0.52845990  0.06153267  0.48294559     0.11600
H1302       H  0.49896595  0.01708709  0.47140620     0.12700
H1303       H  0.42889188  0.98159645  0.52061544     0.11800
H1304       H  0.39940538  0.93707776  0.50906969     0.11000
H1305       H  0.39272000  0.91238156  0.49231062     0.16400
H1306       H  0.45643673  0.96349762  0.46837130     0.12300
H1307       H  0.53674482  0.08512859  0.49985220     0.15200
H1308       H  0.47321800  0.03459133  0.52389602     0.14900
C1309       C  0.51138440  0.33133535  0.58268637    -0.17900
C1310       C  0.51821822  0.34662108  0.57344358    -0.20100
C1311       C  0.49571662  0.35037478  0.56837662     0.20600
C1312       C  0.46597327  0.33858309  0.57260859    -0.03000
C1313       C  0.45913556  0.32331205  0.58199931    -0.06100
C1314       C  0.48199905  0.31970266  0.58702119     0.20800
C1315       C  0.42961885  0.31189448  0.58639302     0.19000
C1316       C  0.40706947  0.31550545  0.58123739    -0.17600
C1317       C  0.41370137  0.33025732  0.57182647    -0.19800
C1318       C  0.44311397  0.34195836  0.56744854     0.20500
C1319       C  0.45002593  0.35656920  0.55796088    -0.32800
C1320       C  0.47965920  0.36814927  0.55371881     0.01200
C1321       C  0.50241337  0.36532498  0.55906478    -0.24100
C1322       C  0.47539937  0.30503661  0.59639232    -0.28700
C1323       C  0.44646731  0.29433968  0.60099393     0.06800
C1324       C  0.42348685  0.29758053  0.59592322    -0.27400
H1325       H  0.52916679  0.32876533  0.58647834     0.11600
H1326       H  0.54110684  0.35545635  0.57024296     0.12700
H1327       H  0.38428257  0.30690170  0.58448127     0.11800
H1328       H  0.39584342  0.33259291  0.56798660     0.11000
H1329       H  0.43230699  0.35844825  0.55382325     0.16400
H1330       H  0.52518826  0.37383308  0.55580283     0.12300
H1331       H  0.49335106  0.30291935  0.60027947     0.15200
H1332       H  0.40119867  0.28957296  0.59946968     0.14900
C1333       C  0.50080805  0.25959574  0.50292165    -0.17900
C1334       C  0.50782710  0.23646242  0.50428966    -0.20100
C1335       C  0.50160857  0.22083206  0.51353903     0.20600
C1336       C  0.48645357  0.22721212  0.52126549    -0.03000
C1337       C  0.47888327  0.25022124  0.51981711    -0.06100
C1338       C  0.48719559  0.26727772  0.51074627     0.20800
C1339       C  0.46492694  0.25755945  0.52770161     0.19000
C1340       C  0.45742703  0.24093413  0.53677661    -0.17600
C1341       C  0.46527913  0.21841029  0.53825489    -0.19800
C1342       C  0.48046613  0.21188317  0.53064481     0.20500
C1343       C  0.49103043  0.19140578  0.53240518    -0.32800
C1344       C  0.50741719  0.18604252  0.52488894     0.01200
C1345       C  0.51166817  0.20008889  0.51536553    -0.24100
C1346       C  0.48398899  0.29316572  0.50997632    -0.28700
C1347       C  0.47234057  0.30197880  0.51812515     0.06800
C1348       C  0.46101852  0.28295230  0.52669093    -0.27400
H1349       H  0.50705729  0.27223388  0.49587655     0.11600
H1350       H  0.51922851  0.23163148  0.49824906     0.12700
H1351       H  0.44664015  0.24623564  0.54289879     0.11800
H1352       H  0.46027349  0.20672536  0.54546907     0.11000
H1353       H  0.48756276  0.18060143  0.53974144     0.16400
H1354       H  0.52416517  0.19602254  0.50950323     0.12300
H1355       H  0.49262785  0.30772119  0.50335350     0.15200
H1356       H  0.45217806  0.28975669  0.53302660     0.14900
C1357       C  0.43622207  0.76705086  0.48333671    -0.17900
C1358       C  0.44203717  0.74294720  0.48391474    -0.20100
C1359       C  0.45238933  0.73432452  0.47539006     0.20600
C1360       C  0.45851420  0.75118274  0.46633071    -0.03000
C1361       C  0.45231039  0.77536206  0.46571324    -0.06100
C1362       C  0.44045320  0.78276506  0.47420428     0.20800
C1363       C  0.45614363  0.79079692  0.45645278     0.19000
C1364       C  0.46801377  0.78312980  0.44807604    -0.17600
C1365       C  0.47437098  0.75927364  0.44870563    -0.19800
C1366       C  0.46885398  0.74257211  0.45771218     0.20500
C1367       C  0.47129890  0.71611169  0.45806022    -0.32800
C1368       C  0.46259445  0.69776976  0.46682033     0.01200
C1369       C  0.45455483  0.70782096  0.47557490    -0.24100
C1370       C  0.43118289  0.80436994  0.47327493    -0.28700
C1371       C  0.43263149  0.81814003  0.46389878     0.06800
C1372       C  0.44629131  0.81220074  0.45559736    -0.27400
H1373       H  0.42725221  0.77260342  0.48993158     0.11600
H1374       H  0.43739578  0.73034463  0.49093386     0.12700
H1375       H  0.47138028  0.79486614  0.44092943     0.11800
H1376       H  0.48245931  0.75309953  0.44202447     0.11000
H1377       H  0.47721388  0.70828790  0.45124243     0.16400
H1378       H  0.44783150  0.69376980  0.48232784     0.12300
H1379       H  0.42091828  0.80895149  0.47973614     0.15200
H1380       H  0.44759643  0.82280938  0.44835241     0.14900
C1381       C  0.49634345  0.55294846  0.50152198    -0.17900
C1382       C  0.49906440  0.53240949  0.50790949    -0.20100
C1383       C  0.48534596  0.50105815  0.50513910     0.20600
C1384       C  0.46868351  0.49033391  0.49583633    -0.03000
C1385       C  0.46602191  0.51108317  0.48937617    -0.06100
C1386       C  0.47986958  0.54253714  0.49224217     0.20800
C1387       C  0.44928132  0.50027110  0.48009246     0.19000
C1388       C  0.43555802  0.46894629  0.47731744    -0.17600
C1389       C  0.43828317  0.44844709  0.48369112    -0.19800
C1390       C  0.45478414  0.45889424  0.49295204     0.20500
C1391       C  0.45810445  0.43854427  0.49926996    -0.32800
C1392       C  0.47531899  0.44914545  0.50842441     0.01200
C1393       C  0.48846420  0.48036558  0.51139684    -0.24100
C1394       C  0.47637916  0.56282157  0.48589292    -0.28700
C1395       C  0.45892254  0.55198485  0.47676788     0.06800
C1396       C  0.44591525  0.52077195  0.47385268    -0.27400
H1397       H  0.50705917  0.57699287  0.50386039     0.11600
H1398       H  0.51197161  0.54107543  0.51501353     0.12700
H1399       H  0.42259314  0.46025707  0.47022475     0.11800
H1400       H  0.42751766  0.42439036  0.48136023     0.11000
H1401       H  0.44794328  0.41456228  0.49692016     0.16400
H1402       H  0.50188896  0.48876402  0.51842496     0.12300
H1403       H  0.48626896  0.58676775  0.48823817     0.15200
H1404       H  0.43232968  0.51217991  0.46686005     0.14900
C1405       C  0.86033362  0.52716555  0.59199211    -0.17900
C1406       C  0.86715132  0.51860873  0.58271287    -0.20100
C1407       C  0.85739859  0.52518029  0.57355372     0.20600
C1408       C  0.84212930  0.54204282  0.57373229    -0.03000
C1409       C  0.83450479  0.54993846  0.58309805    -0.06100
C1410       C  0.84312644  0.54188243  0.59225802     0.20800
C1411       C  0.81638156  0.56391136  0.58327833     0.19000
C1412       C  0.80840864  0.57228037  0.57411869    -0.17600
C1413       C  0.81667509  0.56518890  0.56483856    -0.19800
C1414       C  0.83258028  0.54915830  0.56457065     0.20500
C1415       C  0.83716052  0.53826961  0.55534655    -0.32800
C1416       C  0.84982028  0.51916463  0.55519903     0.01200
C1417       C  0.86085460  0.51354767  0.56428133    -0.24100
C1418       C  0.83240574  0.54654556  0.60147579    -0.28700
C1419       C  0.81178247  0.55753067  0.60160928     0.06800
C1420       C  0.80478059  0.56727043  0.59254262    -0.27400
H1421       H  0.86723770  0.52095319  0.59896851     0.11600
H1422       H  0.87917712  0.50598084  0.58271267     0.12700
H1423       H  0.79484916  0.58335278  0.57411813     0.11800
H1424       H  0.80934952  0.57097436  0.55786086     0.11000
H1425       H  0.82838752  0.54245872  0.54836373     0.16400
H1426       H  0.87068952  0.49888385  0.56418324     0.12300
H1427       H  0.83772912  0.53884626  0.60845283     0.15200
H1428       H  0.78902822  0.57590388  0.59264113     0.14900
C1429       C  0.69552516  0.28034448  0.54704138    -0.17900
C1430       C  0.72222618  0.30988897  0.54710999    -0.20100
C1431       C  0.73677436  0.32370862  0.53799258     0.20600
C1432       C  0.72482575  0.30738202  0.52870988    -0.03000
C1433       C  0.69793939  0.27741643  0.52864473    -0.06100
C1434       C  0.68305501  0.26419225  0.53785569     0.20800
C1435       C  0.68534193  0.26115973  0.51937079     0.19000
C1436       C  0.70029298  0.27491394  0.51026650    -0.17600
C1437       C  0.72684087  0.30485200  0.51032285    -0.19800
C1438       C  0.73901911  0.32144140  0.51949119     0.20500
C1439       C  0.76426741  0.35224666  0.51960756    -0.32800
C1440       C  0.77545603  0.36886869  0.52884029     0.01200
C1441       C  0.76224806  0.35409266  0.53799483    -0.24100
C1442       C  0.65527822  0.23550811  0.53772757    -0.28700
C1443       C  0.64190950  0.21971480  0.52854415     0.06800
C1444       C  0.65742749  0.23203122  0.51938430    -0.27400
H1445       H  0.68428195  0.27035246  0.55416013     0.11600
H1446       H  0.73112197  0.32220531  0.55428201     0.12700
H1447       H  0.69104135  0.26281310  0.50308198     0.11800
H1448       H  0.73751042  0.31524806  0.50317704     0.11000
H1449       H  0.77435284  0.36364608  0.51251585     0.16400
H1450       H  0.77057253  0.36687709  0.54511794     0.12300
H1451       H  0.64354168  0.22573188  0.54481107     0.15200
H1452       H  0.64706010  0.21975432  0.51229407     0.14900
C1453       C  0.68612155  0.44525108  0.50541858    -0.17900
C1454       C  0.65547370  0.43900801  0.50490077    -0.20100
C1455       C  0.64117033  0.44182757  0.51359782     0.20600
C1456       C  0.65825454  0.45200893  0.52283669    -0.03000
C1457       C  0.68903219  0.45807013  0.52337753    -0.06100
C1458       C  0.70292679  0.45430924  0.51464944     0.20800
C1459       C  0.70543622  0.46674138  0.53274770     0.19000
C1460       C  0.69159274  0.47052457  0.54137746    -0.17600
C1461       C  0.66120153  0.46475387  0.54082181    -0.19800
C1462       C  0.64418292  0.45497388  0.53163974     0.20500
C1463       C  0.61292448  0.44687459  0.53121760    -0.32800
C1464       C  0.59528176  0.43520895  0.52217737     0.01200
C1465       C  0.60972722  0.43345472  0.51332849    -0.24100
C1466       C  0.73285736  0.45852223  0.51542225    -0.28700
C1467       C  0.74842351  0.46563243  0.52486398     0.06800
C1468       C  0.73493725  0.47034170  0.53342225    -0.27400
H1469       H  0.69642129  0.44230746  0.49864816     0.11600
H1470       H  0.64272936  0.43135545  0.49774027     0.12700
H1471       H  0.70403795  0.47733280  0.54860510     0.11800
H1472       H  0.65072849  0.46720592  0.54763355     0.11000
H1473       H  0.60189461  0.44820583  0.53807259     0.16400
H1474       H  0.59621541  0.42454272  0.50633569     0.12300
H1475       H  0.74327939  0.45468523  0.50884754     0.15200
H1476       H  0.74716448  0.47606261  0.54069507     0.14900
C1477       C  0.22580212  0.72746787  0.47743143    -0.17900
C1478       C  0.19949465  0.69745926  0.47779795    -0.20100
C1479       C  0.19398244  0.67547727  0.47021120     0.20600
C1480       C  0.21456757  0.68421918  0.46197841    -0.03000
C1481       C  0.24125069  0.71431297  0.46167324    -0.06100
C1482       C  0.24715239  0.73593571  0.46951173     0.20800
C1483       C  0.26253434  0.72239905  0.45368533     0.19000
C1484       C  0.25650395  0.70085106  0.44590672    -0.17600
C1485       C  0.22997053  0.67116662  0.44616353    -0.19800
C1486       C  0.20921343  0.66251414  0.45424208     0.20500
C1487       C  0.18412691  0.63205977  0.45495723    -0.32800
C1488       C  0.16488786  0.62256190  0.46347314     0.01200
C1489       C  0.16921260  0.64456851  0.47092795    -0.24100
C1490       C  0.27465283  0.76531262  0.46940531    -0.28700
C1491       C  0.29634817  0.77308330  0.46161092     0.06800
C1492       C  0.28985382  0.75165041  0.45371332    -0.27400
H1493       H  0.22983658  0.74382937  0.48347226     0.11600
H1494       H  0.18383259  0.69124707  0.48413500     0.12700
H1495       H  0.27258587  0.70679729  0.43970507     0.11800
H1496       H  0.22611414  0.65470995  0.44017398     0.11000
H1497       H  0.18081308  0.61525432  0.44916169     0.16400
H1498       H  0.15424924  0.63737312  0.47748160     0.12300
H1499       H  0.27943940  0.78185703  0.47546731     0.15200
H1500       H  0.30632331  0.75756632  0.44762565     0.14900
C1501       C  0.25830007  0.50176932  0.46181851    -0.17900
C1502       C  0.22717284  0.49278600  0.46334720    -0.20100
C1503       C  0.21960816  0.50790139  0.47069995     0.20600
C1504       C  0.24337194  0.53105897  0.47697769    -0.03000
C1505       C  0.27475412  0.53986283  0.47551508    -0.06100
C1506       C  0.28230278  0.52579237  0.46768677     0.20800
C1507       C  0.29868714  0.56395606  0.48149058     0.19000
C1508       C  0.29093517  0.57802918  0.48917055    -0.17600
C1509       C  0.25987209  0.56964732  0.49050820    -0.19800
C1510       C  0.23605557  0.54686779  0.48424512     0.20500
C1511       C  0.20557597  0.54129983  0.48456878    -0.32800
C1512       C  0.18246722  0.52000856  0.47775725     0.01200
C1513       C  0.18913698  0.50198757  0.47132171    -0.24100
C1514       C  0.31373488  0.53696124  0.46555599    -0.28700
C1515       C  0.33768466  0.56193016  0.47117130     0.06800
C1516       C  0.32999045  0.57459235  0.47934970    -0.27400
H1517       H  0.26367422  0.49055885  0.45583768     0.11600
H1518       H  0.20914629  0.47489939  0.45848754     0.12700
H1519       H  0.30903173  0.59637827  0.49388278     0.11800
H1520       H  0.25463394  0.58178029  0.49619242     0.11000
H1521       H  0.20043474  0.55508594  0.48958341     0.16400
H1522       H  0.17138384  0.48552595  0.46604775     0.12300
H1523       H  0.31954586  0.52694018  0.45930133     0.15200
H1524       H  0.34837048  0.59377570  0.48373691     0.14900
C1525       C  0.96557318  0.52234660  0.48229767    -0.17900
C1526       C  0.94165455  0.51975317  0.48837459    -0.20100
C1527       C  0.93661368  0.50641241  0.49800346     0.20600
C1528       C  0.95594305  0.49568385  0.50155405    -0.03000
C1529       C  0.97990601  0.49814097  0.49541778    -0.06100
C1530       C  0.98477053  0.51159300  0.48575392     0.20800
C1531       C  0.99911179  0.48729826  0.49898965     0.19000
C1532       C  0.99413569  0.47399208  0.50860481    -0.17600
C1533       C  0.97038611  0.47155318  0.51468585    -0.19800
C1534       C  0.95123523  0.48231140  0.51122257     0.20500
C1535       C  0.92704754  0.47931753  0.51720040    -0.32800
C1536       C  0.90709999  0.48902553  0.51360996     0.01200
C1537       C  0.91224732  0.50302189  0.50407482    -0.24100
C1538       C  0.00913801  0.51457816  0.47981458    -0.28700
C1539       C  0.02881925  0.50457451  0.48347683     0.06800
C1540       C  0.02338162  0.49051346  0.49297857    -0.27400
H1541       H  0.96909068  0.53280470  0.47490128     0.11600
H1542       H  0.92704571  0.52810014  0.48553340     0.12700
H1543       H  0.00870524  0.46559306  0.51144122     0.11800
H1544       H  0.96692545  0.46115467  0.52208989     0.11000
H1545       H  0.92317111  0.46850186  0.52455080     0.16400
H1546       H  0.89685691  0.51051153  0.50128317     0.12300
H1547       H  0.01337045  0.52554786  0.47248082     0.15200
H1548       H  0.03854150  0.48278713  0.49580934     0.14900
C1549       C  0.75009138  0.34760858  0.08753970    -0.17900
C1550       C  0.75590702  0.35911177  0.07766027    -0.20100
C1551       C  0.77687771  0.35610018  0.07151267     0.20600
C1552       C  0.79228447  0.34151040  0.07538948    -0.03000
C1553       C  0.78635884  0.32982876  0.08535686    -0.06100
C1554       C  0.76506242  0.33279352  0.09143460     0.20800
C1555       C  0.80164618  0.31507988  0.08921730     0.19000
C1556       C  0.82244988  0.31190646  0.08303989    -0.17600
C1557       C  0.82822351  0.32336437  0.07315718    -0.19800
C1558       C  0.81338095  0.33830036  0.06927854     0.20500
C1559       C  0.81888212  0.34959459  0.05934247    -0.32800
C1560       C  0.80317458  0.36359904  0.05535778     0.01200
C1561       C  0.78234052  0.36694684  0.06151235    -0.24100
C1562       C  0.75904724  0.32080772  0.10128231    -0.28700
C1563       C  0.77431422  0.30623219  0.10520711     0.06800
C1564       C  0.79580596  0.30370460  0.09916602    -0.27400
H1565       H  0.73374393  0.35016004  0.09212132     0.11600
H1566       H  0.74388156  0.37024888  0.07481035     0.12700
H1567       H  0.83424824  0.30050836  0.08584937     0.11800
H1568       H  0.84431277  0.32051521  0.06853896     0.11000
H1569       H  0.83461264  0.34653923  0.05459500     0.16400
H1570       H  0.76996965  0.37751507  0.05845946     0.12300
H1571       H  0.74276925  0.32321232  0.10596373     0.15200
H1572       H  0.80766811  0.29257209  0.10216900     0.14900
C1573       C  0.78789303  0.12887336  0.14999510    -0.17900
C1574       C  0.78296768  0.15006529  0.14479228    -0.20100
C1575       C  0.78907791  0.17761763  0.14956254     0.20600
C1576       C  0.80086270  0.18416185  0.15962141    -0.03000
C1577       C  0.80578144  0.16269576  0.16488992    -0.06100
C1578       C  0.79900141  0.13478174  0.16007737     0.20800
C1579       C  0.81718968  0.16903897  0.17499061     0.19000
C1580       C  0.82383742  0.19686460  0.17970152    -0.17600
C1581       C  0.81893502  0.21808089  0.17449294    -0.19800
C1582       C  0.80727877  0.21190403  0.16446857     0.20500
C1583       C  0.80131480  0.23261838  0.15928505    -0.32800
C1584       C  0.78862388  0.22577489  0.14935431     0.01200
C1585       C  0.78300258  0.19838792  0.14451623    -0.24100
C1586       C  0.80337310  0.11326721  0.16542467    -0.28700
C1587       C  0.81473869  0.11939390  0.17550465     0.06800
C1588       C  0.82169321  0.14745128  0.18020490    -0.27400
H1589       H  0.78274796  0.10769469  0.14614858     0.11600
H1590       H  0.77405405  0.14473500  0.13705395     0.12700
H1591       H  0.83267367  0.20215373  0.18744944     0.11800
H1592       H  0.82402268  0.23923500  0.17834483     0.11000
H1593       H  0.80568222  0.25360552  0.16308786     0.16400
H1594       H  0.77334947  0.19294026  0.13686116     0.12300
H1595       H  0.79825048  0.09191019  0.16170593     0.15200
H1596       H  0.83056443  0.15248005  0.18795615     0.14900
C1597       C  0.68199055  0.54133979  0.05965975    -0.17900
C1598       C  0.69564146  0.54736149  0.06937785    -0.20100
C1599       C  0.67738212  0.54166660  0.07802133     0.20600
C1600       C  0.64524604  0.53079594  0.07683272    -0.03000
C1601       C  0.63135797  0.52409173  0.06705167    -0.06100
C1602       C  0.64977552  0.52908004  0.05843281     0.20800
C1603       C  0.59879354  0.51101794  0.06594119     0.19000
C1604       C  0.58071162  0.50633225  0.07454049    -0.17600
C1605       C  0.59456938  0.51357363  0.08421067    -0.19800
C1606       C  0.62664756  0.52521603  0.08543904     0.20500
C1607       C  0.64006585  0.52985558  0.09514749    -0.32800
C1608       C  0.67152229  0.53873737  0.09640933     0.01200
C1609       C  0.69028102  0.54526754  0.08782497    -0.24100
C1610       C  0.63537339  0.52021097  0.04880666    -0.28700
C1611       C  0.60271923  0.50533169  0.04777307     0.06800
C1612       C  0.58466658  0.50150930  0.05631319    -0.27400
H1613       H  0.69646046  0.54533602  0.05311667     0.11600
H1614       H  0.72036339  0.55587659  0.07013983     0.12700
H1615       H  0.55572792  0.49645595  0.07380513     0.11800
H1616       H  0.58000861  0.50916230  0.09075618     0.11000
H1617       H  0.62541695  0.52447497  0.10173184     0.16400
H1618       H  0.71455028  0.55208526  0.08877017     0.12300
H1619       H  0.64931875  0.52297060  0.04221706     0.15200
H1620       H  0.55949848  0.49015125  0.05550496     0.14900
C1621       C  0.80001356  0.43001921  0.12259568    -0.17900
C1622       C  0.79219681  0.45239828  0.12079137    -0.20100
C1623       C  0.77511470  0.45800521  0.12793339     0.20600
C1624       C  0.76682077  0.44169013  0.13715291    -0.03000
C1625       C  0.77443257  0.41890687  0.13892987    -0.06100
C1626       C  0.79075387  0.41279588  0.13154974     0.20800
C1627       C  0.76416552  0.40106762  0.14782354     0.19000
C1628       C  0.74782098  0.40724638  0.15508989    -0.17600
C1629       C  0.74071893  0.43016409  0.15340537    -0.19800
C1630       C  0.74949863  0.44697066  0.14437183     0.20500
C1631       C  0.73972813  0.46767902  0.14219667    -0.32800
C1632       C  0.74615533  0.48247135  0.13277248     0.01200
C1633       C  0.76474570  0.47837372  0.12580269    -0.24100
C1634       C  0.79575546  0.38826768  0.13294770    -0.28700
C1635       C  0.78354232  0.36900141  0.14141697     0.06800
C1636       C  0.76870974  0.37614858  0.14899388    -0.27400
H1637       H  0.81246880  0.42551073  0.11684229     0.11600
H1638       H  0.79880674  0.46474494  0.11369076     0.12700
H1639       H  0.73983525  0.39381775  0.16196013     0.11800
H1640       H  0.72742738  0.43401322  0.15901864     0.11000
H1641       H  0.72546280  0.47081403  0.14761583     0.16400
H1642       H  0.76984143  0.48982506  0.11853835     0.12300
H1643       H  0.80663354  0.38246973  0.12697872     0.15200
H1644       H  0.75892935  0.36111665  0.15546881     0.14900
C1645       C  0.81430807  0.88265072  0.20096106    -0.17900
C1646       C  0.80752206  0.90614638  0.20049497    -0.20100
C1647       C  0.82111166  0.92905488  0.19307138     0.20600
C1648       C  0.84118954  0.92795264  0.18590633    -0.03000
C1649       C  0.84816082  0.90430219  0.18641349    -0.06100
C1650       C  0.83487047  0.88172837  0.19404584     0.20800
C1651       C  0.86903170  0.90372407  0.17946181     0.19000
C1652       C  0.88240824  0.92651173  0.17198751    -0.17600
C1653       C  0.87546294  0.94992880  0.17147900    -0.19800
C1654       C  0.85504577  0.95100479  0.17842993     0.20500
C1655       C  0.84913796  0.97530285  0.17829430    -0.32800
C1656       C  0.83019471  0.97713714  0.18568828     0.01200
C1657       C  0.81585612  0.95366107  0.19293202    -0.24100
C1658       C  0.84302507  0.85915713  0.19479725    -0.28700
C1659       C  0.86428558  0.85882810  0.18802727     0.06800
C1660       C  0.87679012  0.88086710  0.18026900    -0.27400
H1661       H  0.80384536  0.86545998  0.20685112     0.11600
H1662       H  0.79202207  0.90667602  0.20603353     0.12700
H1663       H  0.89853428  0.92643671  0.16661103     0.11800
H1664       H  0.88642933  0.96748327  0.16572028     0.11000
H1665       H  0.86073804  0.99372976  0.17283683     0.16400
H1666       H  0.80142735  0.95516824  0.19869391     0.12300
H1667       H  0.83335868  0.84225883  0.20080095     0.15200
H1668       H  0.89337640  0.88088263  0.17506715     0.14900
C1669       C  0.82840346  0.66768878  0.14333001    -0.17900
C1670       C  0.84844052  0.69197585  0.14991732    -0.20100
C1671       C  0.83754354  0.69623126  0.15917476     0.20600
C1672       C  0.80611281  0.67577232  0.16182499    -0.03000
C1673       C  0.78589312  0.65119949  0.15518300    -0.06100
C1674       C  0.79715286  0.64720457  0.14590022     0.20800
C1675       C  0.75450499  0.63057875  0.15784981     0.19000
C1676       C  0.74358832  0.63494250  0.16709271    -0.17600
C1677       C  0.76357149  0.65943487  0.17364504    -0.19800
C1678       C  0.79486020  0.67990475  0.17109146     0.20500
C1679       C  0.81500460  0.70460112  0.17759063    -0.32800
C1680       C  0.84625584  0.72529668  0.17494543     0.01200
C1681       C  0.85742657  0.72078422  0.16576661    -0.24100
C1682       C  0.77711240  0.62256814  0.13939837    -0.28700
C1683       C  0.74597935  0.60155145  0.14206602     0.06800
C1684       C  0.73474717  0.60579518  0.15128289    -0.27400
H1685       H  0.83738744  0.66487042  0.13622804     0.11600
H1686       H  0.87246424  0.70748176  0.14775867     0.12700
H1687       H  0.71958610  0.61938662  0.16926200     0.11800
H1688       H  0.75455222  0.66234302  0.18072519     0.11000
H1689       H  0.80619412  0.70798134  0.18464704     0.16400
H1690       H  0.88144214  0.73668917  0.16366980     0.12300
H1691       H  0.78603729  0.61934950  0.13234045     0.15200
H1692       H  0.71083826  0.58958206  0.15341006     0.14900
C1693       C  0.38514544  0.14622112  0.07610526    -0.17900
C1694       C  0.39313519  0.14080130  0.06651210    -0.20100
C1695       C  0.41199622  0.12800434  0.06556886     0.20600
C1696       C  0.42162858  0.11913533  0.07433661    -0.03000
C1697       C  0.41295458  0.12393973  0.08399937    -0.06100
C1698       C  0.39556238  0.13856047  0.08489354     0.20800
C1699       C  0.42334230  0.11588732  0.09277846     0.19000
C1700       C  0.44145671  0.10227469  0.09182197    -0.17600
C1701       C  0.45060910  0.09813149  0.08225543    -0.19800
C1702       C  0.44135046  0.10705868  0.07349187     0.20500
C1703       C  0.45259698  0.10545842  0.06395700    -0.32800
C1704       C  0.44378028  0.11511192  0.05526033     0.01200
C1705       C  0.42268583  0.12537903  0.05606366    -0.24100
C1706       C  0.39082447  0.14719680  0.09453157    -0.28700
C1707       C  0.40282742  0.14089883  0.10324089     0.06800
C1708       C  0.41743441  0.12367839  0.10235645    -0.27400
H1709       H  0.37159642  0.15724594  0.07665671     0.11600
H1710       H  0.38549677  0.14764915  0.05984334     0.12700
H1711       H  0.44959959  0.09597351  0.09849874     0.11800
H1712       H  0.46555705  0.08863627  0.08173018     0.11000
H1713       H  0.46892178  0.09760207  0.06333299     0.16400
H1714       H  0.41620382  0.13325270  0.04936784     0.12300
H1715       H  0.37952638  0.16045136  0.09521979     0.15200
H1716       H  0.42698256  0.11904937  0.10906570     0.14900
C1717       C  0.50946155  0.36182614  0.13748282    -0.17900
C1718       C  0.53577272  0.39194736  0.13779582    -0.20100
C1719       C  0.56068759  0.40046109  0.13118540     0.20600
C1720       C  0.55856501  0.37848791  0.12402583    -0.03000
C1721       C  0.53194119  0.34828738  0.12363326    -0.06100
C1722       C  0.50750150  0.33971472  0.13051757     0.20800
C1723       C  0.53029745  0.32638184  0.11655878     0.19000
C1724       C  0.55486879  0.33487222  0.10984683    -0.17600
C1725       C  0.58125974  0.36463927  0.11028110    -0.19800
C1726       C  0.58337659  0.38642385  0.11738513     0.20500
C1727       C  0.61015103  0.41589696  0.11799920    -0.32800
C1728       C  0.61280114  0.43799799  0.12511070     0.01200
C1729       C  0.58784755  0.43029044  0.13166018    -0.24100
C1730       C  0.48230929  0.30886649  0.13059674    -0.28700
C1731       C  0.48139807  0.28668506  0.12386003     0.06800
C1732       C  0.50484218  0.29593789  0.11661836    -0.27400
H1733       H  0.49086577  0.35568034  0.14280529     0.11600
H1734       H  0.53684606  0.40843501  0.14331996     0.12700
H1735       H  0.55395735  0.31828786  0.10439342     0.11800
H1736       H  0.60018606  0.37053455  0.10512323     0.11000
H1737       H  0.62912919  0.42158514  0.11287941     0.16400
H1738       H  0.58972235  0.44722392  0.13715774     0.12300
H1739       H  0.46423952  0.30182484  0.13619673     0.15200
H1740       H  0.50433838  0.27896284  0.11142576     0.14900
C1741       C  0.60814442  0.24835321  0.15475479    -0.17900
C1742       C  0.57664291  0.23953478  0.15457330    -0.20100
C1743       C  0.55628181  0.21943092  0.14694501     0.20600
C1744       C  0.56761976  0.20740472  0.13960167    -0.03000
C1745       C  0.59940990  0.21645998  0.13974123    -0.06100
C1746       C  0.61983841  0.23729061  0.14729117     0.20800
C1747       C  0.61092381  0.20542576  0.13212567     0.19000
C1748       C  0.59052200  0.18498386  0.12458906    -0.17600
C1749       C  0.55902741  0.17588529  0.12448275    -0.19800
C1750       C  0.54746951  0.18721351  0.13188220     0.20500
C1751       C  0.51645749  0.17981891  0.13139331    -0.32800
C1752       C  0.50546735  0.19312570  0.13829833     0.01200
C1753       C  0.52521414  0.21225250  0.14623451    -0.24100
C1754       C  0.65172810  0.24736832  0.14705125    -0.28700
C1755       C  0.66342446  0.23701426  0.13931986     0.06800
C1756       C  0.64279025  0.21568619  0.13199141    -0.27400
H1757       H  0.62349996  0.26430882  0.16062046     0.11600
H1758       H  0.56834501  0.24891971  0.16028677     0.12700
H1759       H  0.59902013  0.17636060  0.11868662     0.11800
H1760       H  0.54382899  0.16046384  0.11848522     0.11000
H1761       H  0.50142918  0.16520936  0.12521592     0.16400
H1762       H  0.51685767  0.22263186  0.15155952     0.12300
H1763       H  0.66757618  0.26398799  0.15269673     0.15200
H1764       H  0.65168646  0.20778718  0.12598348     0.14900
C1765       C  0.07084298  0.97107284  0.17732581    -0.17900
C1766       C  0.04586518  0.94046109  0.17642454    -0.20100
C1767       C  0.03286007  0.92259255  0.18510478     0.20600
C1768       C  0.04618294  0.93518321  0.19476087    -0.03000
C1769       C  0.07164975  0.96591637  0.19565603    -0.06100
C1770       C  0.08341004  0.98417700  0.18691571     0.20800
C1771       C  0.08412349  0.97890272  0.20534267     0.19000
C1772       C  0.07187540  0.96065052  0.21399651    -0.17600
C1773       C  0.04635777  0.93032268  0.21312388    -0.19800
C1774       C  0.03290374  0.91772668  0.20357240     0.20500
C1775       C  0.00532535  0.88875597  0.20271924    -0.32800
C1776       C  0.99102918  0.87697172  0.19318135     0.01200
C1777       C  0.00561034  0.89317507  0.18436376    -0.24100
C1778       C  0.10629841  0.01565622  0.18796656    -0.28700
C1779       C  0.11748960  0.02913932  0.19763937     0.06800
C1780       C  0.10729316  0.01037767  0.20625472    -0.27400
H1781       H  0.07974890  0.98478147  0.17054116     0.11600
H1782       H  0.03598279  0.93114714  0.16896624     0.12700
H1783       H  0.08128067  0.97020873  0.22147673     0.11800
H1784       H  0.03653609  0.91705612  0.21994625     0.11000
H1785       H  0.99412505  0.87596156  0.20952036     0.16400
H1786       H  0.99443315  0.88403936  0.17702679     0.12300
H1787       H  0.11420069  0.03001042  0.18128521     0.15200
H1788       H  0.11582482  0.02068159  0.21372353     0.14900
C1789       C  0.02415283  0.11473356  0.17689284    -0.17900
C1790       C  0.99414673  0.11001893  0.17605409    -0.20100
C1791       C  0.97742656  0.10799913  0.18478436     0.20600
C1792       C  0.99118742  0.11112325  0.19445572    -0.03000
C1793       C  0.02124200  0.11546041  0.19530312    -0.06100
C1794       C  0.03779625  0.11723098  0.18647455     0.20800
C1795       C  0.03442349  0.11735022  0.20498909     0.19000
C1796       C  0.01792379  0.11571557  0.21371951    -0.17600
C1797       C  0.98827207  0.11173504  0.21287735    -0.19800
C1798       C  0.97460888  0.10911961  0.20329433     0.20500
C1799       C  0.94424835  0.10349769  0.20241237    -0.32800
C1800       C  0.92995729  0.09915579  0.19282711     0.01200
C1801       C  0.94684356  0.10197199  0.18403338    -0.24100
C1802       C  0.06737500  0.12077797  0.18740310    -0.28700
C1803       C  0.08004321  0.12171059  0.19703593     0.06800
C1804       C  0.06362754  0.12024893  0.20578159    -0.27400
H1805       H  0.03650547  0.11597830  0.17004816     0.11600
H1806       H  0.98389242  0.10765761  0.16857459     0.12700
H1807       H  0.02783264  0.11721877  0.22120240     0.11800
H1808       H  0.97580733  0.11019385  0.21972556     0.11000
H1809       H  0.93122387  0.10107561  0.20921124     0.16400
H1810       H  0.93584216  0.09850070  0.17661855     0.12300
H1811       H  0.08003022  0.12172872  0.18066284     0.15200
H1812       H  0.07356075  0.12120098  0.21322514     0.14900
C1813       C  0.28040060  0.17413771  0.14834375    -0.17900
C1814       C  0.25820985  0.17154471  0.15525370    -0.20100
C1815       C  0.25976271  0.16434088  0.16542790     0.20600
C1816       C  0.28394262  0.15974576  0.16867763    -0.03000
C1817       C  0.30624057  0.16223493  0.16170257    -0.06100
C1818       C  0.30448666  0.16953379  0.15149353     0.20800
C1819       C  0.33035065  0.15754806  0.16496192     0.19000
C1820       C  0.33193801  0.15037914  0.17513041    -0.17600
C1821       C  0.30980432  0.14784233  0.18203527    -0.19800
C1822       C  0.28572792  0.15242843  0.17888122     0.20500
C1823       C  0.26304424  0.14917336  0.18570958    -0.32800
C1824       C  0.23843939  0.15291019  0.18247221     0.01200
C1825       C  0.23722083  0.16100918  0.17236187    -0.24100
C1826       C  0.32715296  0.17261337  0.14466507    -0.28700
C1827       C  0.35159956  0.16861779  0.14792971     0.06800
C1828       C  0.35277042  0.16063174  0.15804440    -0.27400
H1829       H  0.27875130  0.17979255  0.14053620     0.11600
H1830       H  0.23976761  0.17508942  0.15263126     0.12700
H1831       H  0.35034432  0.14677976  0.17775006     0.11800
H1832       H  0.31145055  0.14217212  0.18984175     0.11000
H1833       H  0.26404434  0.14282597  0.19348533     0.16400
H1834       H  0.21818405  0.16374112  0.16980760     0.12300
H1835       H  0.32618560  0.17884753  0.13687286     0.15200
H1836       H  0.37163124  0.15763741  0.16060906     0.14900
C1837       C  0.79329857  0.04592037  0.24427056    -0.17900
C1838       C  0.78350097  0.03077393  0.25352374    -0.20100
C1839       C  0.76154880  0.99889484  0.25376143     0.20600
C1840       C  0.74840976  0.98221608  0.24461812    -0.03000
C1841       C  0.75782245  0.99769140  0.23525830    -0.06100
C1842       C  0.78092999  0.02952609  0.23510948     0.20800
C1843       C  0.74537387  0.98104390  0.22605986     0.19000
C1844       C  0.72288483  0.94920725  0.22634597    -0.17600
C1845       C  0.71405651  0.93373386  0.23563041    -0.19800
C1846       C  0.72724537  0.94985314  0.24480475     0.20500
C1847       C  0.72120990  0.93415480  0.25408914    -0.32800
C1848       C  0.73522443  0.95075222  0.26314764     0.01200
C1849       C  0.75407963  0.98317654  0.26295731    -0.24100
C1850       C  0.79246102  0.04414818  0.22582272    -0.28700
C1851       C  0.78123608  0.02752176  0.21663257     0.06800
C1852       C  0.75689069  0.99619753  0.21677501    -0.27400
H1853       H  0.81104025  0.07034619  0.24427493     0.11600
H1854       H  0.79390400  0.04381802  0.26049397     0.12700
H1855       H  0.71294505  0.93606474  0.21937047     0.11800
H1856       H  0.69750918  0.90895149  0.23561184     0.11000
H1857       H  0.70668926  0.90908081  0.25422708     0.16400
H1858       H  0.76530332  0.99598493  0.26990965     0.12300
H1859       H  0.81125405  0.06821067  0.22576541     0.15200
H1860       H  0.74842954  0.98311446  0.20971331     0.14900
C1861       C  0.48770941  0.64095242  0.40950107    -0.17900
C1862       C  0.49318403  0.65474912  0.39996333    -0.20100
C1863       C  0.47573366  0.66751922  0.39654162     0.20600
C1864       C  0.45251223  0.66637012  0.40279154    -0.03000
C1865       C  0.44683364  0.65224548  0.41238295    -0.06100
C1866       C  0.46455565  0.63950949  0.41576914     0.20800
C1867       C  0.42344584  0.65091645  0.41857929     0.19000
C1868       C  0.40623263  0.66399579  0.41522559    -0.17600
C1869       C  0.41182605  0.67793932  0.40572768    -0.19800
C1870       C  0.43475282  0.67906847  0.39942495     0.20500
C1871       C  0.43984400  0.69215918  0.38974911    -0.32800
C1872       C  0.46259684  0.69291788  0.38340753     0.01200
C1873       C  0.48073847  0.68093668  0.38691767    -0.24100
C1874       C  0.45903289  0.62590998  0.42539775    -0.28700
C1875       C  0.43575730  0.62459867  0.43160576     0.06800
C1876       C  0.41789678  0.63688153  0.42807738    -0.27400
H1877       H  0.50156243  0.63134573  0.41196631     0.11600
H1878       H  0.51105995  0.65538443  0.39525017     0.12700
H1879       H  0.38834956  0.66335325  0.41994063     0.11800
H1880       H  0.39806383  0.68766974  0.40328203     0.11000
H1881       H  0.42568500  0.70123329  0.38707420     0.16400
H1882       H  0.49805872  0.68112348  0.38202480     0.12300
H1883       H  0.47310998  0.61680414  0.42811674     0.15200
H1884       H  0.40024953  0.63643120  0.43287506     0.14900
C1885       C  0.58160160  0.76503254  0.31240998    -0.17900
C1886       C  0.60677273  0.78453412  0.30627879    -0.20100
C1887       C  0.62668969  0.81585472  0.30895565     0.20600
C1888       C  0.62110893  0.82774457  0.31785499    -0.03000
C1889       C  0.59574129  0.80804482  0.32405455    -0.06100
C1890       C  0.57597229  0.77652087  0.32132786     0.20800
C1891       C  0.59025364  0.81986654  0.33299249     0.19000
C1892       C  0.60993139  0.85128989  0.33559078    -0.17600
C1893       C  0.63512432  0.87079988  0.32945770    -0.19800
C1894       C  0.64102580  0.85923197  0.32061088     0.20500
C1895       C  0.66668928  0.87846791  0.31454199    -0.32800
C1896       C  0.67261156  0.86661508  0.30574713     0.01200
C1897       C  0.65230872  0.83537686  0.30295302    -0.24100
C1898       C  0.55090217  0.75706503  0.32755394    -0.28700
C1899       C  0.54538130  0.76867352  0.33648954     0.06800
C1900       C  0.56516565  0.80008579  0.33916276    -0.27400
H1901       H  0.56660186  0.74091676  0.31019608     0.11600
H1902       H  0.61075189  0.77507710  0.29946220     0.12700
H1903       H  0.60593483  0.86075280  0.34240187     0.11800
H1904       H  0.65011078  0.89491959  0.33166793     0.11000
H1905       H  0.68226565  0.90252838  0.31673307     0.16400
H1906       H  0.65677427  0.82605859  0.29619326     0.12300
H1907       H  0.53557677  0.73291852  0.32541237     0.15200
H1908       H  0.56081384  0.80923975  0.34598530     0.14900
C1909       C  0.90071999  0.77031470  0.24700809    -0.17900
C1910       C  0.91416380  0.77835864  0.25674704    -0.20100
C1911       C  0.94674563  0.79625645  0.25805516     0.20600
C1912       C  0.96604082  0.80535119  0.24948642    -0.03000
C1913       C  0.95248620  0.79660328  0.23967021    -0.06100
C1914       C  0.91964313  0.77966398  0.23842376     0.20800
C1915       C  0.97176959  0.80601592  0.23109640     0.19000
C1916       C  0.00435488  0.82378935  0.23240095    -0.17600
C1917       C  0.01775337  0.83301518  0.24211858    -0.19800
C1918       C  0.99880989  0.82422966  0.25069772     0.20500
C1919       C  0.01194724  0.83486393  0.26042664    -0.32800
C1920       C  0.99279677  0.82614531  0.26896268     0.01200
C1921       C  0.96031069  0.80624755  0.26774966    -0.24100
C1922       C  0.90635710  0.77378741  0.22862785    -0.28700
C1923       C  0.92550773  0.78397671  0.22009812     0.06800
C1924       C  0.95810730  0.79897601  0.22136328    -0.27400
H1925       H  0.87550107  0.75724086  0.24618619     0.11600
H1926       H  0.89904000  0.77126088  0.26325351     0.12700
H1927       H  0.01945695  0.83130722  0.22588473     0.11800
H1928       H  0.04292706  0.84741071  0.24291404     0.11000
H1929       H  0.03696254  0.85043565  0.26134791     0.16400
H1930       H  0.94541681  0.80004786  0.27430511     0.12300
H1931       H  0.88124974  0.76250943  0.22764024     0.15200
H1932       H  0.97295672  0.80749400  0.21478380     0.14900
C1933       C  0.85852498  0.88102354  0.31472529    -0.17900
C1934       C  0.88476699  0.87809745  0.31554693    -0.20100
C1935       C  0.89542894  0.86953746  0.30706045     0.20600
C1936       C  0.87877156  0.86292646  0.29773782    -0.03000
C1937       C  0.85230218  0.86581121  0.29691616    -0.06100
C1938       C  0.84246979  0.87545732  0.30540183     0.20800
C1939       C  0.83652188  0.86032976  0.28747613     0.19000
C1940       C  0.84664715  0.85107515  0.27904802    -0.17600
C1941       C  0.87281256  0.84823926  0.27985589    -0.19800
C1942       C  0.88927220  0.85462367  0.28910351     0.20500
C1943       C  0.91678520  0.85406922  0.28972408    -0.32800
C1944       C  0.93423761  0.86180648  0.29882336     0.01200
C1945       C  0.92304784  0.86863603  0.30758158    -0.24100
C1946       C  0.81779995  0.88084857  0.30426453    -0.28700
C1947       C  0.80314819  0.87703465  0.29472259     0.06800
C1948       C  0.81188734  0.86567231  0.28647592    -0.27400
H1949       H  0.85123825  0.88837246  0.32132943     0.11600
H1950       H  0.89713355  0.88320753  0.32276628     0.12700
H1951       H  0.83478076  0.84676000  0.27175964     0.11800
H1952       H  0.88061939  0.84174603  0.27317635     0.11000
H1953       H  0.92524289  0.84851250  0.28298535     0.16400
H1954       H  0.93658729  0.87477731  0.31459535     0.12300
H1955       H  0.81114379  0.88958567  0.31067122     0.15200
H1956       H  0.80076996  0.86274125  0.27910978     0.14900
C1957       C  0.33684992  0.89249983  0.39997613    -0.17900
C1958       C  0.35383789  0.89936725  0.40911653    -0.20100
C1959       C  0.33858896  0.88597185  0.41820432     0.20600
C1960       C  0.30568827  0.86660407  0.41813953    -0.03000
C1961       C  0.28861002  0.85923265  0.40889127    -0.06100
C1962       C  0.30435517  0.87183713  0.39974510     0.20800
C1963       C  0.25603994  0.83791860  0.40873508     0.19000
C1964       C  0.24062030  0.82549421  0.41787906    -0.17600
C1965       C  0.25743580  0.83320930  0.42705540    -0.19800
C1966       C  0.28999911  0.85319968  0.42722602     0.20500
C1967       C  0.30727497  0.85852814  0.43622217    -0.32800
C1968       C  0.34011250  0.87579490  0.43618989     0.01200
C1969       C  0.35568204  0.89014979  0.42722828    -0.24100
C1970       C  0.28764195  0.86214441  0.39048416    -0.28700
C1971       C  0.25558296  0.83927559  0.39022227     0.06800
C1972       C  0.23976369  0.82806505  0.39940508    -0.27400
H1973       H  0.34929338  0.90248493  0.39302528     0.11600
H1974       H  0.37901163  0.91448933  0.40902793     0.12700
H1975       H  0.21564059  0.80918431  0.41790435     0.11800
H1976       H  0.24508412  0.82270067  0.43397909     0.11000
H1977       H  0.29518259  0.84711029  0.44309947     0.16400
H1978       H  0.38099582  0.90346667  0.42719750     0.12300
H1979       H  0.30008266  0.87076581  0.38344173     0.15200
H1980       H  0.21510369  0.81045082  0.39926902     0.14900
C1981       C  0.39734528  0.80666584  0.36468486    -0.17900
C1982       C  0.37476620  0.81472068  0.36550988    -0.20100
C1983       C  0.35000713  0.80330552  0.35844530     0.20600
C1984       C  0.34853879  0.78459340  0.35021695    -0.03000
C1985       C  0.37127588  0.77626520  0.34942368    -0.06100
C1986       C  0.39542630  0.78698138  0.35680693     0.20800
C1987       C  0.36900795  0.75608019  0.34156056     0.19000
C1988       C  0.34478566  0.74563892  0.33427854    -0.17600
C1989       C  0.32224543  0.75400054  0.33504507    -0.19800
C1990       C  0.32349497  0.77290440  0.34311754     0.20500
C1991       C  0.29932023  0.77886151  0.34459405    -0.32800
C1992       C  0.29981887  0.79568839  0.35320674     0.01200
C1993       C  0.32575945  0.80880681  0.35984030    -0.24100
C1994       C  0.41644539  0.77674080  0.35649870    -0.28700
C1995       C  0.41338505  0.75529935  0.34906948     0.06800
C1996       C  0.39015313  0.74567823  0.34142470    -0.27400
H1997       H  0.41581165  0.81510562  0.37038857     0.11600
H1998       H  0.37618024  0.82917515  0.37184598     0.12700
H1999       H  0.34277395  0.73030977  0.32814499     0.11800
H2000       H  0.30330277  0.74490296  0.32949922     0.11000
H2001       H  0.27914482  0.76851418  0.33951387     0.16400
H2002       H  0.32620135  0.82192156  0.36645176     0.12300
H2003       H  0.43432728  0.78435317  0.36238376     0.15200
H2004       H  0.38778671  0.72925289  0.33563084     0.14900
C2005       C  0.06322749  0.79750239  0.33677099    -0.17900
C2006       C  0.08184096  0.79199451  0.34337519    -0.20100
C2007       C  0.11423789  0.80693244  0.34201626     0.20600
C2008       C  0.12799122  0.82772229  0.33392783    -0.03000
C2009       C  0.10915725  0.83307933  0.32720769    -0.06100
C2010       C  0.07661214  0.81792465  0.32864668     0.20800
C2011       C  0.12292029  0.85363225  0.31906682     0.19000
C2012       C  0.15534136  0.86883589  0.31776366    -0.17600
C2013       C  0.17398334  0.86363006  0.32443381    -0.19800
C2014       C  0.16054239  0.84303960  0.33250905     0.20500
C2015       C  0.17904208  0.83719182  0.33908934    -0.32800
C2016       C  0.16548810  0.81600079  0.34704205     0.01200
C2017       C  0.13305486  0.80117139  0.34851256    -0.24100
C2018       C  0.05810846  0.82368016  0.32200210    -0.28700
C2019       C  0.07169948  0.84427017  0.31389785     0.06800
C2020       C  0.10410802  0.85890232  0.31243869    -0.27400
H2021       H  0.03830536  0.78570625  0.33800911     0.11600
H2022       H  0.07086734  0.77598952  0.34954542     0.12700
H2023       H  0.16630791  0.88479385  0.31157926     0.11800
H2024       H  0.19893577  0.87560465  0.32323967     0.11000
H2025       H  0.20396533  0.84866563  0.33787369     0.16400
H2026       H  0.12238038  0.78476065  0.35460313     0.12300
H2027       H  0.03319644  0.81240784  0.32320676     0.15200
H2028       H  0.11485095  0.87497956  0.30626377     0.14900
C2029       C  0.12902845  0.44308345  0.42840680    -0.17900
C2030       C  0.13524588  0.43703926  0.41863270    -0.20100
C2031       C  0.12352402  0.44443781  0.41011273     0.20600
C2032       C  0.10467339  0.45733210  0.41144428    -0.03000
C2033       C  0.09900343  0.46408536  0.42129400    -0.06100
C2034       C  0.11142465  0.45708271  0.42980234     0.20800
C2035       C  0.08217799  0.47915629  0.42260233     0.19000
C2036       C  0.06987223  0.48592532  0.41408719    -0.17600
C2037       C  0.07493637  0.47863701  0.40432586    -0.19800
C2038       C  0.09271423  0.46482397  0.40292762     0.20500
C2039       C  0.10008167  0.45983044  0.39316443    -0.32800
C2040       C  0.12031608  0.44873058  0.39183054     0.01200
C2041       C  0.13150205  0.44052562  0.40029743    -0.24100
C2042       C  0.10745808  0.46571127  0.43951915    -0.28700
C2043       C  0.09252772  0.48249683  0.44078733     0.06800
C2044       C  0.07929588  0.48853323  0.43235372    -0.27400
H2045       H  0.13879517  0.43767141  0.43487087     0.11600
H2046       H  0.14968612  0.42708399  0.41773470     0.12700
H2047       H  0.05684878  0.49740420  0.41496585     0.11800
H2048       H  0.06570069  0.48461761  0.39785404     0.11000
H2049       H  0.09195223  0.46675041  0.38662502     0.16400
H2050       H  0.14729765  0.43218083  0.39924724     0.12300
H2051       H  0.11800980  0.46137059  0.44602280     0.15200
H2052       H  0.06778503  0.50149055  0.43335021     0.14900
C2053       C  0.33352704  0.57818179  0.33311139    -0.17900
C2054       C  0.30239477  0.55599431  0.33498115    -0.20100
C2055       C  0.29396549  0.54079012  0.34430797     0.20600
C2056       C  0.31723540  0.54656460  0.35161066    -0.03000
C2057       C  0.34868432  0.56892182  0.34971396    -0.06100
C2058       C  0.35660248  0.58548224  0.34055249     0.20800
C2059       C  0.37173340  0.57656502  0.35731277     0.19000
C2060       C  0.36345108  0.56019651  0.36644491    -0.17600
C2061       C  0.33222028  0.53787900  0.36830905    -0.19800
C2062       C  0.30884360  0.53165564  0.36107564     0.20500
C2063       C  0.27715123  0.51228992  0.36335076    -0.32800
C2064       C  0.25395512  0.50807983  0.35631459     0.01200
C2065       C  0.26253276  0.52135926  0.34667694    -0.24100
C2066       C  0.38665588  0.61115422  0.33941794    -0.28700
C2067       C  0.40835179  0.62117032  0.34747501     0.06800
C2068       C  0.40179466  0.60245679  0.35605044    -0.27400
H2069       H  0.33932187  0.59068605  0.32604288     0.11600
H2070       H  0.28475214  0.55164502  0.32929325     0.12700
H2071       H  0.38088410  0.56568193  0.37233614     0.11800
H2072       H  0.32619862  0.52644804  0.37557628     0.11000
H2073       H  0.27056789  0.50184671  0.37076715     0.16400
H2074       H  0.24470371  0.51793888  0.34118979     0.12300
H2075       H  0.39192260  0.62547403  0.33276742     0.15200
H2076       H  0.41861322  0.61018917  0.36228282     0.14900
C2077       C  0.16791927  0.60598440  0.38217456    -0.17900
C2078       C  0.17251761  0.63571601  0.38228992    -0.20100
C2079       C  0.17218774  0.64981917  0.37319411     0.20600
C2080       C  0.16615286  0.63338954  0.36391362    -0.03000
C2081       C  0.16134967  0.60330547  0.36379984    -0.06100
C2082       C  0.16289022  0.58987678  0.37296143     0.20800
C2083       C  0.15609831  0.58713004  0.35449574     0.19000
C2084       C  0.15493140  0.60092170  0.34543217    -0.17600
C2085       C  0.15992515  0.63084176  0.34553837    -0.19800
C2086       C  0.16596717  0.64740214  0.35471683     0.20500
C2087       C  0.17280072  0.67805612  0.35482800    -0.32800
C2088       C  0.17981507  0.69490814  0.36401203     0.01200
C2089       C  0.17880029  0.68040202  0.37318472    -0.24100
C2090       C  0.16056992  0.56109872  0.37271697    -0.28700
C2091       C  0.15662146  0.54545605  0.36345281     0.06800
C2092       C  0.15334020  0.55802390  0.35439516    -0.27400
H2093       H  0.16895317  0.59584593  0.38927556     0.11600
H2094       H  0.17698452  0.64794188  0.38947971     0.12700
H2095       H  0.15085660  0.58884624  0.33823222     0.11800
H2096       H  0.15958341  0.64124091  0.33841427     0.11000
H2097       H  0.17361810  0.68911933  0.34772348     0.16400
H2098       H  0.18436973  0.69330691  0.38028161     0.12300
H2099       H  0.16264837  0.55118237  0.37973662     0.15200
H2100       H  0.15025193  0.54593466  0.34725215     0.14900
C2101       C  0.13970060  0.23165613  0.24496877    -0.17900
C2102       C  0.14766852  0.22385230  0.23576707    -0.20100
C2103       C  0.16327325  0.20751717  0.23565472     0.20600
C2104       C  0.17240270  0.20037640  0.24489845    -0.03000
C2105       C  0.16475420  0.20866501  0.25419374    -0.06100
C2106       C  0.14739872  0.22344430  0.25420703     0.20800
C2107       C  0.17265537  0.20033905  0.26344511     0.19000
C2108       C  0.18927890  0.18500486  0.26332948    -0.17600
C2109       C  0.19648747  0.17643138  0.25411687    -0.19800
C2110       C  0.18746040  0.18331085  0.24486652     0.20500
C2111       C  0.19161098  0.17195690  0.23563304    -0.32800
C2112       C  0.18124783  0.17781791  0.22644684     0.01200
C2113       C  0.16825538  0.19665057  0.22648934    -0.24100
C2114       C  0.13608827  0.22767672  0.26338408    -0.28700
C2115       C  0.14202190  0.21743182  0.27252900     0.06800
C2116       C  0.16177876  0.20539980  0.27258426    -0.27400
H2117       H  0.12657254  0.24318017  0.24484822     0.11600
H2118       H  0.14058810  0.22958608  0.22872937     0.12700
H2119       H  0.19559801  0.17851855  0.27036732     0.11800
H2120       H  0.20827315  0.16357254  0.25423497     0.11000
H2121       H  0.20158255  0.15741423  0.23563326     0.16400
H2122       H  0.15989104  0.20096966  0.21944181     0.12300
H2123       H  0.12091330  0.23699302  0.26332928     0.15200
H2124       H  0.16619646  0.19719954  0.27961681     0.14900
C2125       C  0.91747588  0.08979884  0.31161352    -0.17900
C2126       C  0.88704735  0.06389315  0.31097461    -0.20100
C2127       C  0.87500262  0.04783596  0.30172026     0.20600
C2128       C  0.89347774  0.05868707  0.29295581    -0.03000
C2129       C  0.92392986  0.08506258  0.29356585    -0.06100
C2130       C  0.93628845  0.10029817  0.30298514     0.20800
C2131       C  0.94237724  0.09551436  0.28479810     0.19000
C2132       C  0.93021744  0.07991349  0.27550596    -0.17600
C2133       C  0.90026863  0.05360145  0.27493033    -0.19800
C2134       C  0.88191259  0.04265206  0.28362196     0.20500
C2135       C  0.85251853  0.01546729  0.28317144    -0.32800
C2136       C  0.83425365  0.00401062  0.29189389     0.01200
C2137       C  0.84525924  0.02065293  0.30111142    -0.24100
C2138       C  0.96756222  0.12495309  0.30363962    -0.28700
C2139       C  0.98624179  0.13476205  0.29494070     0.06800
C2140       C  0.97312995  0.12059509  0.28552040    -0.27400
H2141       H  0.92647551  0.10131820  0.31889584     0.11600
H2142       H  0.87319094  0.05600413  0.31777092     0.12700
H2143       H  0.94414320  0.08766600  0.26871999     0.11800
H2144       H  0.89161686  0.04155551  0.26770688     0.11000
H2145       H  0.84402367  0.00289867  0.27601689     0.16400
H2146       H  0.83124279  0.01185824  0.30785435     0.12300
H2147       H  0.97761070  0.13587476  0.31093130     0.15200
H2148       H  0.98747762  0.12789410  0.27881712     0.14900
C2149       C  0.11281423  0.06779583  0.28495278    -0.17900
C2150       C  0.10810141  0.03799523  0.28492921    -0.20100
C2151       C  0.09265670  0.01788496  0.29297685     0.20600
C2152       C  0.08347587  0.02853277  0.30139809    -0.03000
C2153       C  0.08841501  0.05862229  0.30145803    -0.06100
C2154       C  0.10229685  0.07796193  0.29305129     0.20800
C2155       C  0.07797170  0.06872994  0.30969305     0.19000
C2156       C  0.06360117  0.04907368  0.31790811    -0.17600
C2157       C  0.05853326  0.01919288  0.31781736    -0.19800
C2158       C  0.06786659  0.00857610  0.30952679     0.20500
C2159       C  0.06031266  0.97782499  0.30899028    -0.32800
C2160       C  0.06745322  0.96647311  0.30033887     0.01200
C2161       C  0.08464809  0.98685074  0.29251372    -0.24100
C2162       C  0.10394992  0.10643362  0.29268359    -0.28700
C2163       C  0.09242280  0.11591376  0.30068703     0.06800
C2164       C  0.08061065  0.09765637  0.30933063    -0.27400
H2165       H  0.12383400  0.08254492  0.27849924     0.11600
H2166       H  0.11556544  0.03030858  0.27845389     0.12700
H2167       H  0.05546337  0.05648765  0.32427211     0.11800
H2168       H  0.04654895  0.00408888  0.32411323     0.11000
H2169       H  0.04713575  0.96223570  0.31506148     0.16400
H2170       H  0.09032812  0.97819613  0.28584692     0.12300
H2171       H  0.11323091  0.12079796  0.28603490     0.15200
H2172       H  0.07152783  0.10501466  0.31544266     0.14900
C2173       C  0.14287987  0.32151807  0.34676846    -0.17900
C2174       C  0.13756170  0.29725655  0.34027691    -0.20100
C2175       C  0.12243736  0.29303731  0.33086656     0.20600
C2176       C  0.11245674  0.31337145  0.32796300    -0.03000
C2177       C  0.11767635  0.33775306  0.33453479    -0.06100
C2178       C  0.13302865  0.34183591  0.34396217     0.20800
C2179       C  0.10780874  0.35818882  0.33163364     0.19000
C2180       C  0.09274463  0.35398448  0.32220692    -0.17600
C2181       C  0.08756835  0.32978977  0.31568297    -0.19800
C2182       C  0.09738415  0.30942410  0.31848384     0.20500
C2183       C  0.09240705  0.28518257  0.31198164    -0.32800
C2184       C  0.10221888  0.26481901  0.31485977     0.01200
C2185       C  0.11716082  0.26885367  0.32430919    -0.24100
C2186       C  0.13869898  0.36644634  0.35036001    -0.28700
C2187       C  0.12936638  0.38715803  0.34745927     0.06800
C2188       C  0.11364680  0.38274366  0.33813857    -0.27400
H2189       H  0.15476708  0.32443744  0.35397695     0.11600
H2190       H  0.14537607  0.28184754  0.34260258     0.12700
H2191       H  0.08508175  0.36949538  0.31985946     0.11800
H2192       H  0.07594780  0.32704769  0.30843281     0.11000
H2193       H  0.08071742  0.28204676  0.30471381     0.16400
H2194       H  0.12468247  0.25314749  0.32656928     0.12300
H2195       H  0.15102371  0.36986265  0.35751682     0.15200
H2196       H  0.10665138  0.39882826  0.33584121     0.14900
loop_ 
_geom_bond_atom_site_label_1 
_geom_bond_atom_site_label_2 
_geom_bond_distance 
_geom_bond_site_symmetry_2 
_ccdc_geom_bond_type 
In1           O3   2.252       .  S
In1           O4   2.239       .  S
In1          O12   2.234       .  S
In1           O6   2.233       .  S
In1           O8   2.250       .  S
In1           O9   2.244       .  S
In1          O10   2.213       .  S
In1          O13   2.240       .  S
C2            O8   1.265       .  A
C2           O10   1.259       .  A
C2         C2163   1.464       .  S
O3           C11   1.260       .  A
O4           C11   1.262       .  A
C5           O12   1.261       .  A
C5            O6   1.262       .  A
C5         C2184   1.473       .  S
C7            O9   1.265       .  A
C7           O13   1.262       .  A
C7         C2115   1.476       .  S
C11        C2139   1.476   1_455  S
In14         O16   2.224       .  S
In14         O17   2.227       .  S
In14         O25   2.214       .  S
In14         O19   2.245       .  S
In14         O21   2.260       .  S
In14         O22   2.246       .  S
In14         O23   2.210       .  S
In14         O26   2.217       .  S
C15          O21   1.267       .  A
C15          O23   1.260       .  A
C15        C2091   1.473       .  S
O16          C24   1.263       .  A
O17          C24   1.265       .  A
C18          O25   1.260       .  A
C18          O19   1.265       .  A
C18        C2187   1.472       .  S
C20          O22   1.263       .  A
C20          O26   1.260       .  A
C20        C2064   1.472       .  S
C24        C2040   1.468       .  S
In27         O29   2.246       .  S
In27         O30   2.257       .  S
In27         O38   2.263       .  S
In27         O32   2.253       .  S
In27         O34   2.215       .  S
In27         O35   2.259       .  S
In27         O36   2.276       .  S
In27         O39   2.243       .  S
C28          O34   1.257       .  A
C28          O36   1.263       .  A
C28        C1992   1.472       .  S
O29          C37   1.262       .  A
O30          C37   1.265       .  A
C31          O38   1.261       .  A
C31          O32   1.261       .  A
C31        C2016   1.485       .  S
C33          O35   1.261       .  A
C33          O39   1.259       .  A
C33        C2088   1.479       .  S
C37        C1971   1.483       .  S
In40         O42   2.224       .  S
In40         O43   2.254       .  S
In40         O51   2.243       .  S
In40         O45   2.264       .  S
In40         O47   2.211   1_455  S
In40         O48   2.245       .  S
In40         O49   2.285   1_455  S
In40         O52   2.236   1_455  S
C41          O47   1.258       .  A
C41          O49   1.267       .  A
C41        C1944   1.476       .  S
O42          C50   1.260       .  A
O43          C50   1.262       .  A
C44          O51   1.260       .  A
C44          O45   1.264       .  A
C44        C2019   1.484       .  S
C46          O48   1.264       .  A
C46          O52   1.263   1_455  A
C46        C1920   1.474   1_455  S
C50        C2160   1.474       .  S
In53         O55   2.253       .  S
In53         O56   2.247       .  S
In53         O64   2.252       .  S
In53         O58   2.251       .  S
In53         O60   2.250       .  S
In53         O61   2.234       .  S
In53         O62   2.223       .  S
In53         O65   2.263       .  S
C54          O60   1.259       .  A
C54          O62   1.261       .  A
C54        C2067   1.468       .  S
O55          C63   1.265       .  A
O56          C63   1.262       .  A
C57          O64   1.258       .  A
C57          O58   1.257       .  A
C57        C1899   1.477       .  S
C59          O61   1.262       .  A
C59          O65   1.261       .  A
C59        C1995   1.479       .  S
C63        C1872   1.480       .  S
In66         O68   2.234       .  S
In66         O69   2.248       .  S
In66         O77   2.226       .  S
In66         O71   2.248       .  S
In66         O73   2.262       .  S
In66         O74   2.261       .  S
In66         O75   2.210       .  S
In66         O78   2.225       .  S
C67          O73   1.268       .  A
C67          O75   1.261       .  A
C67        C2136   1.476   1_565  S
O68          C76   1.261       .  A
O69          C76   1.267       .  A
C70          O77   1.262       .  A
C70          O71   1.265       .  A
C70        C1896   1.477       .  S
C72          O74   1.266       .  A
C72          O78   1.262       .  A
C72        C1848   1.475       .  S
C76        C1947   1.479       .  S
In79         O81   2.227       .  S
In79         O82   2.257       .  S
In79         O90   2.233       .  S
In79         O84   2.240       .  S
In79         O86   2.209       .  S
In79         O87   2.250       .  S
In79         O88   2.247       .  S
In79         O91   2.231       .  S
C80          O86   1.260       .  A
C80          O88   1.266       .  A
C80        C1803   1.467       .  S
O81          C89   1.258       .  A
O82          C89   1.264       .  A
C83          O90   1.262       .  A
C83          O84   1.262       .  A
C83        C1824   1.476       .  S
C85          O87   1.266       .  A
C85          O91   1.262       .  A
C85        C2112   1.478       .  S
C89        C1779   1.476       .  S
In92         O94   2.230       .  S
In92         O95   2.242       .  S
In92        O103   2.242       .  S
In92         O97   2.243       .  S
In92         O99   2.233       .  S
In92        O100   2.239       .  S
In92        O101   2.266       .  S
In92        O104   2.256       .  S
C93          O99   1.257       .  A
C93         O101   1.261       .  A
C93        C1752   1.476       .  S
O94         C102   1.262       .  A
O95         C102   1.264       .  A
C96         O103   1.259       .  A
C96          O97   1.260       .  A
C96        C1827   1.475       .  S
C98         O100   1.259       .  A
C98         O104   1.259       .  A
C98        C1731   1.476       .  S
C102       C1707   1.472       .  S
In105       O107   2.238       .  S
In105       O108   2.249       .  S
In105       O116   2.233       .  S
In105       O110   2.253       .  S
In105       O112   2.259       .  S
In105       O113   2.238       .  S
In105       O114   2.204       .  S
In105       O117   2.229       .  S
C106        O112   1.269       .  A
C106        O114   1.260       .  A
C106       C1776   1.467       .  S
O107        C115   1.260       .  A
O108        C115   1.263       .  A
C109        O116   1.260       .  A
C109        O110   1.264       .  A
C109       C1680   1.479       .  S
C111        O113   1.265       .  A
C111        O117   1.262       .  A
C111       C1923   1.470       .  S
C115       C1659   1.478       .  S
In118       O120   2.229       .  S
In118       O121   2.250       .  S
In118       O129   2.220       .  S
In118       O123   2.258       .  S
In118       O125   2.281       .  S
In118       O126   2.248       .  S
In118       O127   2.197       .  S
In118       O130   2.217       .  S
C119        O125   1.269       .  A
C119        O127   1.260       .  A
C119       C1728   1.480       .  S
O120        C128   1.263       .  A
O121        C128   1.264       .  A
C122        O129   1.261       .  A
C122        O123   1.266       .  A
C122       C1683   1.479       .  S
C124        O126   1.266       .  A
C124        O130   1.262       .  A
C124       C1632   1.474       .  S
C128       C1608   1.477       .  S
In131       O133   2.272       .  S
In131       O134   2.243       .  S
In131       O142   2.260       .  S
In131       O136   2.279       .  S
In131       O138   2.243       .  S
In131       O139   2.248       .  S
In131       O140   2.236       .  S
In131       O143   2.239       .  S
C132        O138   1.261       .  A
C132        O140   1.260       .  A
C132       C1635   1.473       .  S
O133        C141   1.264       .  A
O134        C141   1.259       .  A
C135        O142   1.258       .  A
C135        O136   1.261       .  A
C135       C1584   1.489       .  S
C137        O139   1.264       .  A
C137        O143   1.259       .  A
C137       C1755   1.477       .  S
C141       C1563   1.481       .  S
In144       O146   2.237       .  S
In144       O147   2.243       .  S
In144       O155   2.244       .  S
In144       O149   2.279       .  S
In144       O151   2.283       .  S
In144       O152   2.228       .  S
In144       O153   2.220       .  S
In144       O156   2.253       .  S
C145        O151   1.267       .  A
C145        O153   1.255       .  A
C145       C1656   1.475   1_545  S
O146        C154   1.259       .  A
O147        C154   1.262       .  A
C148        O155   1.259       .  A
C148        O149   1.266       .  A
C148       C1587   1.489       .  S
C150        O152   1.266       .  A
C150        O156   1.267       .  A
C150       C1851   1.480       .  S
C154       C1800   1.473       .  S
In157       O159   2.231       .  S
In157       O160   2.244       .  S
In157       O168   2.232       .  S
In157       O162   2.244       .  S
In157       O164   2.262       .  S
In157       O165   2.228       .  S
In157       O166   2.237       .  S
In157       O169   2.257       .  S
C158        O164   1.261       .  A
C158        O166   1.257       .  A
C158       C1512   1.475       .  S
O159        C167   1.260       .  A
O160        C167   1.263       .  A
C161        O168   1.255       .  A
C161        O162   1.259       .  A
C161       C1539   1.468       .  S
C163        O165   1.261       .  A
C163        O169   1.261       .  A
C163       C1488   1.475       .  S
C167       C2043   1.470       .  S
In170       O172   2.243       .  S
In170       O173   2.231       .  S
In170       O181   2.211       .  S
In170       O175   2.247       .  S
In170       O177   2.197       .  S
In170       O178   2.246       .  S
In170       O179   2.255       .  S
In170       O182   2.232       .  S
C171        O177   1.259       .  A
C171        O179   1.267       .  A
C171       C1467   1.465       .  S
O172        C180   1.260       .  A
O173        C180   1.263       .  A
C174        O181   1.260       .  A
C174        O175   1.263       .  A
C174       C1536   1.471       .  S
C176        O178   1.264       .  A
C176        O182   1.262       .  A
C176       C1416   1.475       .  S
C180       C1440   1.473       .  S
In183       O185   2.264       .  S
In183       O186   2.225       .  S
In183       O194   2.252       .  S
In183       O188   2.268       .  S
In183       O190   2.264       .  S
In183       O191   2.253       .  S
In183       O192   2.242       .  S
In183       O195   2.239       .  S
C184        O190   1.259       .  A
C184        O192   1.261       .  A
C184       C1368   1.478       .  S
O185        C193   1.266       .  A
O186        C193   1.261       .  A
C187        O194   1.258       .  A
C187        O188   1.261       .  A
C187       C1395   1.484       .  S
C189        O191   1.263       .  A
C189        O195   1.260       .  A
C189       C1515   1.477       .  S
C193       C1875   1.480       .  S
In196       O198   2.254       .  S
In196       O199   2.236       .  S
In196       O207   2.264       .  S
In196       O201   2.256       .  S
In196       O203   2.256       .  S
In196       O204   2.212       .  S
In196       O205   2.258       .  S
In196       O208   2.267       .  S
C197        O203   1.258       .  A
C197        O205   1.260       .  A
C197       C1347   1.478       .  S
O198        C206   1.262       .  A
O199        C206   1.261       .  A
C200        O207   1.257       .  A
C200        O201   1.259       .  A
C200       C1392   1.482       .  S
C202        O204   1.260       .  A
C202        O208   1.266       .  A
C202       C1320   1.476       .  S
C206       C1464   1.476       .  S
In209       O211   2.218       .  S
In209       O212   2.258       .  S
In209       O220   2.236       .  S
In209       O214   2.245       .  S
In209       O216   2.256       .  S
In209       O217   2.272       .  S
In209       O218   2.219       .  S
In209       O221   2.218       .  S
C210        O216   1.267       .  A
C210        O218   1.261       .  A
C210       C1491   1.477       .  S
O211        C219   1.260       .  A
O212        C219   1.267       .  A
C213        O220   1.263       .  A
C213        O214   1.263       .  A
C213       C1296   1.479       .  S
C215        O217   1.266       .  A
C215        O221   1.261       .  A
C215       C1371   1.482       .  S
C219       C1968   1.475       .  S
In222       O224   2.229       .  S
In222       O225   2.275       .  S
In222       O233   2.250       .  S
In222       O227   2.231       .  S
In222       O229   2.262       .  S
In222       O230   2.275       .  S
In222       O231   2.199       .  S
In222       O234   2.227       .  S
C223        O229   1.266       .  A
C223        O231   1.261       .  A
C223       C1443   1.469       .  S
O224        C232   1.258       .  A
O225        C232   1.266       .  A
C226        O233   1.263       .  A
C226        O227   1.261       .  A
C226       C1299   1.477       .  S
C228        O230   1.267       .  A
C228        O234   1.261       .  A
C228       C1272   1.479       .  S
C232       C1344   1.483       .  S
In235       O237   2.229       .  S
In235       O238   2.246       .  S
In235       O246   2.225       .  S
In235       O240   2.255       .  S
In235       O242   2.246       .  S
In235       O243   2.222       .  S
In235       O244   2.254       .  S
In235       O247   2.252       .  S
C236        O242   1.258       .  A
C236        O244   1.259       .  A
C236       C1227   1.471       .  S
O237        C245   1.261       .  A
O238        C245   1.263       .  A
C239        O246   1.256       .  A
C239        O240   1.261       .  A
C239       C1251   1.472       .  S
C241        O243   1.262       .  A
C241        O247   1.264       .  A
C241       C1176   1.475       .  S
C245       C1203   1.474       .  S
In248       O250   2.252       .  S
In248       O251   2.242       .  S
In248       O259   2.231       .  S
In248       O253   2.273       .  S
In248       O255   2.233       .  S
In248       O256   2.251       .  S
In248       O257   2.250       .  S
In248       O260   2.237       .  S
C249        O255   1.261       .  A
C249        O257   1.260       .  A
C249       C1152   1.473       .  S
O250        C258   1.265       .  A
O251        C258   1.261       .  A
C252        O259   1.255       .  A
C252        O253   1.259       .  A
C252       C1248   1.477       .  S
C254        O256   1.261       .  A
C254        O260   1.259       .  A
C254       C1128   1.475       .  S
C258       C1560   1.479       .  S
In261       O263   2.220       .  S
In261       O264   2.257       .  S
In261       O272   2.234       .  S
In261       O266   2.251       .  S
In261       O268   2.262       .  S
In261       O269   2.256       .  S
In261       O270   2.220       .  S
In261       O273   2.239       .  S
C262        O268   1.268       .  A
C262        O270   1.262       .  A
C262       C1080   1.476       .  S
O263        C271   1.260       .  A
O264        C271   1.267       .  A
C265        O272   1.262       .  A
C265        O266   1.266       .  A
C265       C1104   1.481       .  S
C267        O269   1.266       .  A
C267        O273   1.263       .  A
C267       C1059   1.479       .  S
C271       C1224   1.477       .  S
In274       O276   2.225       .  S
In274       O277   2.237       .  S
In274       O285   2.230       .  S
In274       O279   2.261       .  S
In274       O281   2.265       .  S
In274       O282   2.245       .  S
In274       O283   2.212       .  S
In274       O286   2.232       .  S
C275        O281   1.268       .  A
C275        O283   1.260       .  A
C275       C1032   1.478       .  S
O276        C284   1.262       .  A
O277        C284   1.264       .  A
C278        O285   1.260       .  A
C278        O279   1.265       .  A
C278       C1107   1.481       .  S
C280        O282   1.263       .  A
C280        O286   1.262       .  A
C280       C1155   1.476       .  S
C284       C1704   1.471       .  S
In287       O289   2.246       .  S
In287       O290   2.251       .  S
In287       O298   2.238       .  S
In287       O292   2.250       .  S
In287       O294   2.208       .  S
In287       O295   2.238       .  S
In287       O296   2.269       .  S
In287       O299   2.240       .  S
C288        O294   1.258       .  A
C288        O296   1.266       .  A
C288       C1200   1.469       .  S
O289        C297   1.260       .  A
O290        C297   1.262       .  A
C291        O298   1.260       .  A
C291        O292   1.263       .  A
C291       C1008   1.477       .  S
C293        O295   1.265       .  A
C293        O299   1.262       .  A
C293        C987   1.472       .  S
C297       C1083   1.480       .  S
In300       O302   2.238       .  S
In300       O303   2.239       .  S
In300       O311   2.246       .  S
In300       O305   2.264       .  S
In300       O307   2.253       .  S
In300       O308   2.241       .  S
In300       O309   2.254       .  S
In300       O312   2.249       .  S
C301        O307   1.260       .  A
C301        O309   1.259       .  A
C301       C1131   1.478       .  S
O302        C310   1.260       .  A
O303        C310   1.263       .  A
C304        O311   1.256       .  A
C304        O305   1.260       .  A
C304       C1011   1.479       .  S
C306        O308   1.262       .  A
C306        O312   1.263       .  A
C306       C1035   1.477       .  S
C310       C1611   1.471       .  S
In313       O315   2.233       .  S
In313       O316   2.248       .  S
In313       O324   2.222       .  S
In313       O318   2.269       .  S
In313       O320   2.273       .  S
In313       O321   2.245       .  S
In313       O322   2.217       .  S
In313       O325   2.244       .  S
C314        O320   1.268       .  A
C314        O322   1.260       .  A
C314        C936   1.480   1_545  S
O315        C323   1.264       .  A
O316        C323   1.265       .  A
C317        O324   1.260       .  A
C317        O318   1.265       .  A
C317        C963   1.482       .  S
C319        O321   1.264       .  A
C319        O325   1.261       .  A
C319        C915   1.479       .  S
C323        C891   1.478       .  S
In326       O328   2.244       .  S
In326       O329   2.256       .  S
In326       O337   2.254       .  S
In326       O331   2.249       .  S
In326       O333   2.258       .  S
In326       O334   2.221       .  S
In326       O335   2.248       .  S
In326       O338   2.264       .  S
C327        O333   1.259       .  A
C327        O335   1.259       .  A
C327        C864   1.475       .  S
O328        C336   1.260       .  A
O329        C336   1.263       .  A
C330        O337   1.259       .  A
C330        O331   1.260       .  A
C330        C960   1.480       .  S
C332        O334   1.262       .  A
C332        O338   1.265       .  A
C332       C1323   1.478       .  S
C336        C840   1.481       .  S
In339       O341   2.227       .  S
In339       O342   2.264       .  S
In339       O350   2.226       .  S
In339       O344   2.253       .  S
In339       O346   2.259       .  S
In339       O347   2.254       .  S
In339       O348   2.209       .  S
In339       O351   2.230       .  S
C340        O346   1.267       .  A
C340        O348   1.261       .  A
C340        C795   1.471       .  S
O341        C349   1.261       .  A
O342        C349   1.266       .  A
C343        O350   1.261       .  A
C343        O344   1.264       .  A
C343        C816   1.477       .  S
C345        O347   1.266       .  A
C345        O351   1.261       .  A
C345       C1419   1.476       .  S
C349        C867   1.482       .  S
In352       O354   2.232       .  S
In352       O355   2.251       .  S
In352       O363   2.224       .  S
In352       O357   2.242       .  S
In352       O359   2.254       .  S
In352       O360   2.243       .  S
In352       O361   2.214       .  S
In352       O364   2.231       .  S
C353        O359   1.268       .  A
C353        O361   1.260       .  A
C353        C771   1.473       .  S
O354        C362   1.262       .  A
O355        C362   1.266       .  A
C356        O363   1.262       .  A
C356        O357   1.266       .  A
C356        C819   1.475       .  S
C358        O360   1.266       .  A
C358        O364   1.261       .  A
C358        C939   1.474       .  S
C362        C744   1.478       .  S
In365       O367   2.239       .  S
In365       O368   2.256       .  S
In365       O376   2.249       .  S
In365       O370   2.245       .  S
In365       O372   2.228       .  S
In365       O373   2.248       .  S
In365       O374   2.286       .  S
In365       O377   2.233       .  S
C366        O372   1.256       .  A
C366        O374   1.262       .  A
C366        C843   1.478       .  S
O367        C375   1.258       .  A
O368        C375   1.259       .  A
C369        O376   1.259       .  A
C369        O370   1.261       .  A
C369        C720   1.477       .  S
C371        O373   1.265       .  A
C371        O377   1.264       .  A
C371       C1275   1.478       .  S
C375        C792   1.475       .  S
In378       O380   2.248       .  S
In378       O381   2.239       .  S
In378       O389   2.240       .  S
In378       O383   2.263       .  S
In378       O385   2.272       .  S
In378       O386   2.241       .  S
In378       O387   2.232       .  S
In378       O390   2.246       .  S
C379        O385   1.263       .  A
C379        O387   1.258       .  A
C379        C912   1.475       .  S
O380        C388   1.265       .  A
O381        C388   1.262       .  A
C382        O389   1.258       .  A
C382        O383   1.261       .  A
C382        C723   1.479       .  S
C384        O386   1.258       .  A
C384        O390   1.258       .  A
C384        C768   1.472       .  S
C388        C699   1.477       .  S
In391       O393   2.217       .  S
In391       O394   2.256       .  S
In391       O402   2.234       .  S
In391       O396   2.260       .  S
In391       O398   2.251       .  S
In391       O399   2.230       .  S
In391       O400   2.258       .  S
In391       O403   2.250       .  S
C392        O398   1.258       .  A
C392        O400   1.259       .  A
C392        C648   1.477       .  S
O393        C401   1.259       .  A
O394        C401   1.264       .  A
C395        O402   1.256       .  A
C395        O396   1.260       .  A
C395        C675   1.477       .  S
C397        O399   1.264       .  A
C397        O403   1.265       .  A
C397       C1179   1.476       .  S
C401        C627   1.473       .  S
In404       O406   2.242       .  S
In404       O407   2.253       .  S
In404       O415   2.243       .  S
In404       O409   2.257       .  S
In404       O411   2.264       .  S
In404       O412   2.264       .  S
In404       O413   2.216       .  S
In404       O416   2.232       .  S
C405        O411   1.266       .  A
C405        O413   1.260       .  A
C405        C603   1.472   1_565  S
O406        C414   1.262       .  A
O407        C414   1.264       .  A
C408        O415   1.261       .  A
C408        O409   1.263       .  A
C408        C672   1.481       .  S
C410        O412   1.263       .  A
C410        O416   1.259       .  A
C410        C576   1.480   1_455  S
C414        C888   1.477       .  S
In417       O419   2.239       .  S
In417       O420   2.239       .  S
In417       O428   2.243       .  S
In417       O422   2.270       .  S
In417       O424   2.267       .  S
In417       O425   2.249       .  S
In417       O426   2.232       .  S
In417       O429   2.221       .  S
C418        O424   1.271       .  A
C418        O426   1.260       .  A
C418        C579   1.483       .  S
O419        C427   1.264       .  A
O420        C427   1.267       .  A
C421        O428   1.262       .  A
C421        O422   1.269       .  A
C421        C552   1.490       .  S
C423        O425   1.266       .  A
C423        O429   1.261       .  A
C423        C531   1.473       .  S
C427        C747   1.479       .  S
In430       O432   2.262       .  S
In430       O433   2.259       .  S
In430       O441   2.245       .  S
In430       O435   2.285       .  S
In430       O437   2.237       .  S
In430       O438   2.249       .  S
In430       O439   2.266       .  S
In430       O442   2.246       .  S
C431        O437   1.255       .  A
C431        O439   1.261       .  A
C431        C624   1.476       .  S
O432        C440   1.260       .  A
O433        C440   1.259       .  A
C434        O441   1.258       .  A
C434        O435   1.261       .  A
C434        C555   1.488       .  S
C436        O438   1.265       .  A
C436        O442   1.264       .  A
C436       C1056   1.481       .  S
C440        C507   1.483       .  S
In443       O445   2.233   1_455  S
In443       O446   2.245       .  S
In443       O454   2.210       .  S
In443       O448   2.243       .  S
In443       O450   2.263   1_455  S
In443       O451   2.231       .  S
In443       O452   2.192   1_455  S
In443       O455   2.245       .  S
C444        O450   1.268       .  A
C444        O452   1.260       .  A
C444        C528   1.470       .  S
O445        C453   1.262       .  A
O446        C453   1.264   1_455  A
C447        O454   1.260       .  A
C447        O448   1.264       .  A
C447        C480   1.470       .  S
C449        O451   1.263       .  A
C449        O455   1.262       .  A
C449        C600   1.476       .  S
C453        C696   1.472       .  S
In456       O458   2.222       .  S
In456       O459   2.255       .  S
In456       O467   2.228       .  S
In456       O461   2.226       .  S
In456       O463   2.251       .  S
In456       O464   2.246       .  S
In456       O465   2.221       .  S
In456       O468   2.220       .  S
C457        O463   1.267       .  A
C457        O465   1.262       .  A
C457        C504   1.477       .  S
O458        C466   1.260       .  A
O459        C466   1.268       .  A
C460        O467   1.262       .  A
C460        O461   1.265       .  A
C460        C483   1.471       .  S
C462        O464   1.268       .  A
C462        O468   1.263       .  A
C462        C984   1.473       .  S
C466        C651   1.478       .  S
C469        C470   1.399       .  A
C469        C474   1.404       .  A
C469        H485   1.083       .  S
C470        C471   1.403       .  A
C470        H486   1.084       .  S
C471        C481   1.403       .  A
C471        C472   1.412       .  A
C472        C478   1.411       .  A
C472        C473   1.408       .  A
C473        C475   1.412       .  A
C473        C474   1.411       .  A
C474        C482   1.402       .  A
C475        C484   1.398       .  A
C475        C476   1.402       .  A
C476        C477   1.395       .  A
C476        H487   1.084       .  S
C477        C478   1.402       .  A
C477        H488   1.084       .  S
C478        C479   1.396       .  A
C479        C480   1.404       .  A
C479        H489   1.084       .  S
C480        C481   1.405       .  A
C481        H490   1.084       .  S
C482        C483   1.407       .  A
C482        H491   1.084       .  S
C483        C484   1.403       .  A
C484        H492   1.084       .  S
C493        C494   1.400       .  A
C493        C498   1.404       .  A
C493        H509   1.083       .  S
C494        C495   1.403       .  A
C494        H510   1.084       .  S
C495        C505   1.405       .  A
C495        C496   1.412       .  A
C496        C502   1.411       .  A
C496        C497   1.413       .  A
C497        C499   1.412       .  A
C497        C498   1.411       .  A
C498        C506   1.405       .  A
C499        C508   1.404       .  A
C499        C500   1.404       .  A
C500        C501   1.399       .  A
C500        H511   1.084       .  S
C501        C502   1.404       .  A
C501        H512   1.084       .  S
C502        C503   1.402       .  A
C503        C504   1.407       .  A
C503        H513   1.084       .  S
C504        C505   1.405       .  A
C505        H514   1.084       .  S
C506        C507   1.407       .  A
C506        H515   1.084       .  S
C507        C508   1.407       .  A
C508        H516   1.084       .  S
C517        C518   1.400       .  A
C517        C522   1.404       .  A
C517        H533   1.083       .  S
C518        C519   1.403       .  A
C518        H534   1.083       .  S
C519        C529   1.406       .  A
C519        C520   1.414       .  A
C520        C526   1.409       .  A
C520        C521   1.410       .  A
C521        C523   1.414       .  A
C521        C522   1.410       .  A
C522        C530   1.402   1_545  A
C523        C532   1.401   1_545  A
C523        C524   1.402       .  A
C524        C525   1.396       .  A
C524        H535   1.084       .  S
C525        C526   1.402       .  A
C525        H536   1.084       .  S
C526        C527   1.395       .  A
C527        C528   1.405       .  A
C527        H537   1.085       .  S
C528        C529   1.404       .  A
C529        H538   1.084       .  S
C530        C531   1.407       .  A
C530        H539   1.084       .  S
C531        C532   1.403       .  A
C532        H540   1.084       .  S
C541        C542   1.399       .  A
C541        C546   1.403       .  A
C541        H557   1.083       .  S
C542        C543   1.403       .  A
C542        H558   1.083       .  S
C543        C553   1.408       .  A
C543        C544   1.413       .  A
C544        C550   1.410       .  A
C544        C545   1.417       .  A
C545        C547   1.413       .  A
C545        C546   1.410       .  A
C546        C554   1.403       .  A
C547        C556   1.412       .  A
C547        C548   1.405       .  A
C548        C549   1.403       .  A
C548        H559   1.084       .  S
C549        C550   1.406       .  A
C549        H560   1.083       .  S
C550        C551   1.408       .  A
C551        C552   1.412       .  A
C551        H561   1.084       .  S
C552        C553   1.407       .  A
C553        H562   1.084       .  S
C554        C555   1.407       .  A
C554        H563   1.084       .  S
C555        C556   1.410       .  A
C556        H564   1.084       .  S
C565        C566   1.402       .  A
C565        C570   1.406       .  A
C565        H581   1.083       .  S
C566        C567   1.404       .  A
C566        H582   1.084       .  S
C567        C577   1.407       .  A
C567        C568   1.413       .  A
C568        C574   1.410       .  A
C568        C569   1.414       .  A
C569        C571   1.413       .  A
C569        C570   1.410       .  A
C570        C578   1.407       .  A
C571        C580   1.405       .  A
C571        C572   1.403       .  A
C572        C573   1.398       .  A
C572        H583   1.083       .  S
C573        C574   1.403       .  A
C573        H584   1.083       .  S
C574        C575   1.401       .  A
C575        C576   1.406       .  A
C575        H585   1.084       .  S
C576        C577   1.407       .  A
C577        H586   1.084       .  S
C578        C579   1.411       .  A
C578        H587   1.084       .  S
C579        C580   1.404       .  A
C580        H588   1.084       .  S
C589        C590   1.396       .  A
C589        C594   1.402       .  A
C589        H605   1.084       .  S
C590        C591   1.402       .  A
C590        H606   1.084       .  S
C591        C601   1.398       .  A
C591        C592   1.412       .  A
C592        C598   1.411       .  A
C592        C593   1.411       .  A
C593        C595   1.413       .  A
C593        C594   1.411       .  A
C594        C602   1.398       .  A
C595        C604   1.407       .  A
C595        C596   1.404       .  A
C596        C597   1.401       .  A
C596        H607   1.083       .  S
C597        C598   1.405       .  A
C597        H608   1.084       .  S
C598        C599   1.406       .  A
C599        C600   1.408       .  A
C599        H609   1.084       .  S
C600        C601   1.404       .  A
C601        H610   1.084       .  S
C602        C603   1.404       .  A
C602        H611   1.085       .  S
C603        C604   1.405       .  A
C604        H612   1.084       .  S
C613        C614   1.399       .  A
C613        C618   1.403       .  A
C613        H629   1.084       .  S
C614        C615   1.404       .  A
C614        H630   1.084       .  S
C615        C625   1.401       .  A
C615        C616   1.410       .  A
C616        C622   1.413       .  A
C616        C617   1.410       .  A
C617        C619   1.410       .  A
C617        C618   1.413       .  A
C618        C626   1.403       .  A
C619        C628   1.398       .  A
C619        C620   1.403       .  A
C620        C621   1.397       .  A
C620        H631   1.084       .  S
C621        C622   1.402       .  A
C621        H632   1.083       .  S
C622        C623   1.402       .  A
C623        C624   1.404       .  A
C623        H633   1.084       .  S
C624        C625   1.408       .  A
C625        H634   1.084       .  S
C626        C627   1.405       .  A
C626        H635   1.084       .  S
C627        C628   1.406       .  A
C628        H636   1.084       .  S
C637        C638   1.398       .  A
C637        C642   1.402       .  A
C637        H653   1.084       .  S
C638        C639   1.403       .  A
C638        H654   1.084       .  S
C639        C649   1.401       .  A
C639        C640   1.411       .  A
C640        C646   1.413       .  A
C640        C641   1.412       .  A
C641        C643   1.410       .  A
C641        C642   1.413       .  A
C642        C650   1.403       .  A
C643        C652   1.403       .  A
C643        C644   1.404       .  A
C644        C645   1.400       .  A
C644        H655   1.084       .  S
C645        C646   1.404       .  A
C645        H656   1.084       .  S
C646        C647   1.406       .  A
C647        C648   1.407       .  A
C647        H657   1.084       .  S
C648        C649   1.406       .  A
C649        H658   1.084       .  S
C650        C651   1.404       .  A
C650        H659   1.084       .  S
C651        C652   1.409       .  A
C652        H660   1.084       .  S
C661        C662   1.399       .  A
C661        C666   1.403       .  A
C661        H677   1.084       .  S
C662        C663   1.404       .  A
C662        H678   1.083       .  S
C663        C673   1.405       .  A
C663        C664   1.412       .  A
C664        C670   1.411       .  A
C664        C665   1.412       .  A
C665        C667   1.413       .  A
C665        C666   1.410       .  A
C666        C674   1.401       .  A
C667        C676   1.404       .  A
C667        C668   1.403       .  A
C668        C669   1.399       .  A
C668        H679   1.084       .  S
C669        C670   1.404       .  A
C669        H680   1.083       .  S
C670        C671   1.403       .  A
C671        C672   1.408       .  A
C671        H681   1.084       .  S
C672        C673   1.407       .  A
C673        H682   1.084       .  S
C674        C675   1.407       .  A
C674        H683   1.084       .  S
C675        C676   1.406       .  A
C676        H684   1.084       .  S
C685        C686   1.399       .  A
C685        C690   1.404       .  A
C685        H701   1.084       .  S
C686        C687   1.404       .  A
C686        H702   1.084       .  S
C687        C697   1.401       .  A
C687        C688   1.411       .  A
C688        C694   1.413       .  A
C688        C689   1.412       .  A
C689        C691   1.411       .  A
C689        C690   1.413       .  A
C690        C698   1.404       .  A
C691        C700   1.403       .  A
C691        C692   1.404       .  A
C692        C693   1.399   1_655  A
C692        H703   1.084   1_655  S
C693        C694   1.403   1_455  A
C693        H704   1.083       .  S
C694        C695   1.405   1_655  A
C695        C696   1.404   1_455  A
C695        H705   1.084       .  S
C696        C697   1.406       .  A
C697        H706   1.085       .  S
C698        C699   1.406       .  A
C698        H707   1.084       .  S
C699        C700   1.406       .  A
C700        H708   1.084       .  S
C709        C710   1.397       .  A
C709        C714   1.403       .  A
C709        H725   1.084       .  S
C710        C711   1.403       .  A
C710        H726   1.084       .  S
C711        C721   1.401       .  A
C711        C712   1.412       .  A
C712        C718   1.411       .  A
C712        C713   1.412       .  A
C713        C715   1.412       .  A
C713        C714   1.411       .  A
C714        C722   1.401       .  A
C715        C724   1.405       .  A
C715        C716   1.404       .  A
C716        C717   1.400       .  A
C716        H727   1.083       .  S
C717        C718   1.404       .  A
C717        H728   1.084       .  S
C718        C719   1.405       .  A
C719        C720   1.408       .  A
C719        H729   1.084       .  S
C720        C721   1.404       .  A
C721        H730   1.084       .  S
C722        C723   1.406       .  A
C722        H731   1.084       .  S
C723        C724   1.407       .  A
C724        H732   1.084       .  S
C733        C734   1.400       .  A
C733        C738   1.405       .  A
C733        H749   1.084       .  S
C734        C735   1.403       .  A
C734        H750   1.084       .  S
C735        C745   1.406       .  A
C735        C736   1.413       .  A
C736        C742   1.411       .  A
C736        C737   1.413       .  A
C737        C739   1.413       .  A
C737        C738   1.411       .  A
C738        C746   1.405       .  A
C739        C748   1.404       .  A
C739        C740   1.403       .  A
C740        C741   1.398       .  A
C740        H751   1.084       .  S
C741        C742   1.404       .  A
C741        H752   1.084       .  S
C742        C743   1.402       .  A
C743        C744   1.407       .  A
C743        H753   1.085       .  S
C744        C745   1.405       .  A
C745        H754   1.084       .  S
C746        C747   1.408       .  A
C746        H755   1.084       .  S
C747        C748   1.405       .  A
C748        H756   1.084       .  S
C757        C758   1.397       .  A
C757        C762   1.403       .  A
C757        H773   1.084       .  S
C758        C759   1.403       .  A
C758        H774   1.084       .  S
C759        C769   1.400   1_565  A
C759        C760   1.412       .  A
C760        C766   1.411       .  A
C760        C761   1.410       .  A
C761        C763   1.413       .  A
C761        C762   1.411       .  A
C762        C770   1.399       .  A
C763        C772   1.404       .  A
C763        C764   1.403       .  A
C764        C765   1.399       .  A
C764        H775   1.083       .  S
C765        C766   1.403       .  A
C765        H776   1.084       .  S
C766        C767   1.402   1_565  A
C767        C768   1.405       .  A
C767        H777   1.084       .  S
C768        C769   1.404       .  A
C769        H778   1.084       .  S
C770        C771   1.406       .  A
C770        H779   1.085       .  S
C771        C772   1.404       .  A
C772        H780   1.084       .  S
C781        C782   1.399       .  A
C781        C786   1.403       .  A
C781        H797   1.083       .  S
C782        C783   1.404       .  A
C782        H798   1.083       .  S
C783        C793   1.400       .  A
C783        C784   1.410       .  A
C784        C790   1.413       .  A
C784        C785   1.410       .  A
C785        C787   1.410       .  A
C785        C786   1.414       .  A
C786        C794   1.405       .  A
C787        C796   1.398       .  A
C787        C788   1.403       .  A
C788        C789   1.398       .  A
C788        H799   1.084       .  S
C789        C790   1.403       .  A
C789        H800   1.084       .  S
C790        C791   1.403       .  A
C791        C792   1.405       .  A
C791        H801   1.084       .  S
C792        C793   1.406       .  A
C793        H802   1.084       .  S
C794        C795   1.404       .  A
C794        H803   1.084       .  S
C795        C796   1.405       .  A
C796        H804   1.085       .  S
C805        C806   1.398       .  A
C805        C810   1.402       .  A
C805        H821   1.084       .  S
C806        C807   1.403       .  A
C806        H822   1.084       .  S
C807        C817   1.400       .  A
C807        C808   1.410       .  A
C808        C814   1.413       .  A
C808        C809   1.411       .  A
C809        C811   1.410       .  A
C809        C810   1.413       .  A
C810        C818   1.402       .  A
C811        C820   1.402       .  A
C811        C812   1.404       .  A
C812        C813   1.400       .  A
C812        H823   1.084       .  S
C813        C814   1.404       .  A
C813        H824   1.083       .  S
C814        C815   1.405       .  A
C815        C816   1.406       .  A
C815        H825   1.084       .  S
C816        C817   1.406       .  A
C817        H826   1.084       .  S
C818        C819   1.404       .  A
C818        H827   1.084       .  S
C819        C820   1.407       .  A
C820        H828   1.084       .  S
C829        C830   1.401       .  A
C829        C834   1.404       .  A
C829        H845   1.083       .  S
C830        C831   1.405       .  A
C830        H846   1.084       .  S
C831        C841   1.405       .  A
C831        C832   1.410       .  A
C832        C838   1.413       .  A
C832        C833   1.413       .  A
C833        C835   1.410       .  A
C833        C834   1.414       .  A
C834        C842   1.409       .  A
C835        C844   1.399       .  A
C835        C836   1.403       .  A
C836        C837   1.397       .  A
C836        H847   1.084       .  S
C837        C838   1.403       .  A
C837        H848   1.084       .  S
C838        C839   1.403       .  A
C839        C840   1.405       .  A
C839        H849   1.084       .  S
C840        C841   1.408       .  A
C841        H850   1.084       .  S
C842        C843   1.407       .  A
C842        H851   1.084       .  S
C843        C844   1.405       .  A
C844        H852   1.085       .  S
C853        C854   1.398       .  A
C853        C858   1.403       .  A
C853        H869   1.084       .  S
C854        C855   1.402       .  A
C854        H870   1.083       .  S
C855        C865   1.403       .  A
C855        C856   1.413       .  A
C856        C862   1.411       .  A
C856        C857   1.413       .  A
C857        C859   1.413       .  A
C857        C858   1.410       .  A
C858        C866   1.401       .  A
C859        C868   1.407       .  A
C859        C860   1.404       .  A
C860        C861   1.401       .  A
C860        H871   1.084       .  S
C861        C862   1.404       .  A
C861        H872   1.084       .  S
C862        C863   1.404       .  A
C863        C864   1.407       .  A
C863        H873   1.085       .  S
C864        C865   1.404       .  A
C865        H874   1.084       .  S
C866        C867   1.407       .  A
C866        H875   1.084       .  S
C867        C868   1.407       .  A
C868        H876   1.084       .  S
C877        C878   1.400       .  A
C877        C882   1.404       .  A
C877        H893   1.083       .  S
C878        C879   1.405       .  A
C878        H894   1.084       .  S
C879        C889   1.404       .  A
C879        C880   1.410       .  A
C880        C886   1.413   1_545  A
C880        C881   1.413       .  A
C881        C883   1.410       .  A
C881        C882   1.413       .  A
C882        C890   1.407       .  A
C883        C892   1.401       .  A
C883        C884   1.403   1_545  A
C884        C885   1.399       .  A
C884        H895   1.084       .  S
C885        C886   1.403       .  A
C885        H896   1.083       .  S
C886        C887   1.405       .  A
C887        C888   1.404       .  A
C887        H897   1.084       .  S
C888        C889   1.407   1_565  A
C889        H898   1.084       .  S
C890        C891   1.407       .  A
C890        H899   1.084       .  S
C891        C892   1.406       .  A
C892        H900   1.084       .  S
C901        C902   1.401       .  A
C901        C906   1.404       .  A
C901        H917   1.083       .  S
C902        C903   1.404       .  A
C902        H918   1.083       .  S
C903        C913   1.407   1_455  A
C903        C904   1.413       .  A
C904        C910   1.411       .  A
C904        C905   1.412       .  A
C905        C907   1.412       .  A
C905        C906   1.411       .  A
C906        C914   1.405       .  A
C907        C916   1.402       .  A
C907        C908   1.403       .  A
C908        C909   1.398       .  A
C908        H919   1.084       .  S
C909        C910   1.403       .  A
C909        H920   1.084       .  S
C910        C911   1.401       .  A
C911        C912   1.405   1_455  A
C911        H921   1.085       .  S
C912        C913   1.405       .  A
C913        H922   1.084       .  S
C914        C915   1.408       .  A
C914        H923   1.084       .  S
C915        C916   1.405       .  A
C916        H924   1.084       .  S
C925        C926   1.397   1_655  A
C925        C930   1.402       .  A
C925        H941   1.084       .  S
C926        C927   1.403       .  A
C926        H942   1.084       .  S
C927        C937   1.399       .  A
C927        C928   1.410       .  A
C928        C934   1.413       .  A
C928        C929   1.412   1_455  A
C929        C931   1.411       .  A
C929        C930   1.412       .  A
C930        C938   1.400       .  A
C931        C940   1.406       .  A
C931        C932   1.405       .  A
C932        C933   1.402   1_655  A
C932        H943   1.084       .  S
C933        C934   1.404       .  A
C933        H944   1.083       .  S
C934        C935   1.408       .  A
C935        C936   1.406       .  A
C935        H945   1.084       .  S
C936        C937   1.407       .  A
C937        H946   1.085       .  S
C938        C939   1.402       .  A
C938        H947   1.084       .  S
C939        C940   1.408       .  A
C940        H948   1.084       .  S
C949        C950   1.397       .  A
C949        C954   1.403       .  A
C949        H965   1.084       .  S
C950        C951   1.402       .  A
C950        H966   1.084       .  S
C951        C961   1.401       .  A
C951        C952   1.412       .  A
C952        C958   1.411       .  A
C952        C953   1.413       .  A
C953        C955   1.413       .  A
C953        C954   1.410       .  A
C954        C962   1.399       .  A
C955        C964   1.409       .  A
C955        C956   1.405       .  A
C956        C957   1.402       .  A
C956        H967   1.083       .  S
C957        C958   1.405       .  A
C957        H968   1.083       .  S
C958        C959   1.406       .  A
C959        C960   1.409       .  A
C959        H969   1.084       .  S
C960        C961   1.405       .  A
C961        H970   1.084       .  S
C962        C963   1.407       .  A
C962        H971   1.084       .  S
C963        C964   1.408       .  A
C964        H972   1.084       .  S
C973        C974   1.400       .  A
C973        C978   1.404       .  A
C973        H989   1.084       .  S
C974        C975   1.403       .  A
C974        H990   1.084       .  S
C975        C985   1.405       .  A
C975        C976   1.413       .  A
C976        C982   1.411       .  A
C976        C977   1.411       .  A
C977        C979   1.413       .  A
C977        C978   1.411       .  A
C978        C986   1.403       .  A
C979        C988   1.402       .  A
C979        C980   1.402       .  A
C980        C981   1.397       .  A
C980        H991   1.084       .  S
C981        C982   1.403       .  A
C981        H992   1.084       .  S
C982        C983   1.399       .  A
C983        C984   1.405       .  A
C983        H993   1.085       .  S
C984        C985   1.404       .  A
C985        H994   1.084       .  S
C986        C987   1.407       .  A
C986        H995   1.085       .  S
C987        C988   1.403       .  A
C988        H996   1.084       .  S
C997        C998   1.399       .  A
C997       C1002   1.404       .  A
C997       H1013   1.083       .  S
C998        C999   1.403   1_554  A
C998       H1014   1.084       .  S
C999       C1009   1.403       .  A
C999       C1000   1.412       .  A
C1000      C1006   1.411       .  A
C1000      C1001   1.412       .  A
C1001      C1003   1.412       .  A
C1001      C1002   1.411   1_556  A
C1002      C1010   1.403       .  A
C1003      C1012   1.403       .  A
C1003      C1004   1.403       .  A
C1004      C1005   1.399       .  A
C1004      H1015   1.084       .  S
C1005      C1006   1.404       .  A
C1005      H1016   1.083       .  S
C1006      C1007   1.403       .  A
C1007      C1008   1.407       .  A
C1007      H1017   1.084       .  S
C1008      C1009   1.405       .  A
C1009      H1018   1.084       .  S
C1010      C1011   1.408       .  A
C1010      H1019   1.084       .  S
C1011      C1012   1.405   1_554  A
C1012      H1020   1.084       .  S
C1021      C1022   1.397       .  A
C1021      C1026   1.403       .  A
C1021      H1037   1.084       .  S
C1022      C1023   1.403       .  A
C1022      H1038   1.084       .  S
C1023      C1033   1.399       .  A
C1023      C1024   1.410       .  A
C1024      C1030   1.413       .  A
C1024      C1025   1.412       .  A
C1025      C1027   1.411       .  A
C1025      C1026   1.412       .  A
C1026      C1034   1.401       .  A
C1027      C1036   1.404       .  A
C1027      C1028   1.404       .  A
C1028      C1029   1.400       .  A
C1028      H1039   1.083       .  S
C1029      C1030   1.403       .  A
C1029      H1040   1.083       .  S
C1030      C1031   1.406       .  A
C1031      C1032   1.405       .  A
C1031      H1041   1.084       .  S
C1032      C1033   1.407       .  A
C1033      H1042   1.084       .  S
C1034      C1035   1.405       .  A
C1034      H1043   1.084       .  S
C1035      C1036   1.407       .  A
C1036      H1044   1.084       .  S
C1045      C1046   1.401       .  A
C1045      C1050   1.404       .  A
C1045      H1061   1.083       .  S
C1046      C1047   1.405       .  A
C1046      H1062   1.084       .  S
C1047      C1057   1.406       .  A
C1047      C1048   1.411       .  A
C1048      C1054   1.412       .  A
C1048      C1049   1.414       .  A
C1049      C1051   1.411       .  A
C1049      C1050   1.413       .  A
C1050      C1058   1.408       .  A
C1051      C1060   1.403       .  A
C1051      C1052   1.404       .  A
C1052      C1053   1.399       .  A
C1052      H1063   1.084       .  S
C1053      C1054   1.403       .  A
C1053      H1064   1.083       .  S
C1054      C1055   1.405       .  A
C1055      C1056   1.405       .  A
C1055      H1065   1.084       .  S
C1056      C1057   1.409       .  A
C1057      H1066   1.084       .  S
C1058      C1059   1.406       .  A
C1058      H1067   1.084       .  S
C1059      C1060   1.406       .  A
C1060      H1068   1.085       .  S
C1069      C1070   1.398       .  A
C1069      C1074   1.403       .  A
C1069      H1085   1.084       .  S
C1070      C1071   1.403       .  A
C1070      H1086   1.084       .  S
C1071      C1081   1.401       .  A
C1071      C1072   1.411       .  A
C1072      C1078   1.413       .  A
C1072      C1073   1.413       .  A
C1073      C1075   1.411       .  A
C1073      C1074   1.412       .  A
C1074      C1082   1.403       .  A
C1075      C1084   1.405       .  A
C1075      C1076   1.405       .  A
C1076      C1077   1.401       .  A
C1076      H1087   1.083       .  S
C1077      C1078   1.404       .  A
C1077      H1088   1.083       .  S
C1078      C1079   1.407       .  A
C1079      C1080   1.405       .  A
C1079      H1089   1.084       .  S
C1080      C1081   1.406       .  A
C1081      H1090   1.085       .  S
C1082      C1083   1.405       .  A
C1082      H1091   1.084       .  S
C1083      C1084   1.408       .  A
C1084      H1092   1.084       .  S
C1093      C1094   1.399       .  A
C1093      C1098   1.404   1_565  A
C1093      H1109   1.084       .  S
C1094      C1095   1.403   1_554  A
C1094      H1110   1.084       .  S
C1095      C1105   1.405       .  A
C1095      C1096   1.412       .  A
C1096      C1102   1.410       .  A
C1096      C1097   1.413   1_565  A
C1097      C1099   1.413       .  A
C1097      C1098   1.410   1_556  A
C1098      C1106   1.402       .  A
C1099      C1108   1.406   1_556  A
C1099      C1100   1.404       .  A
C1100      C1101   1.400   1_545  A
C1100      H1111   1.084       .  S
C1101      C1102   1.404       .  A
C1101      H1112   1.083       .  S
C1102      C1103   1.404       .  A
C1103      C1104   1.409       .  A
C1103      H1113   1.084       .  S
C1104      C1105   1.406       .  A
C1105      H1114   1.084       .  S
C1106      C1107   1.408       .  A
C1106      H1115   1.084       .  S
C1107      C1108   1.406       .  A
C1108      H1116   1.084       .  S
C1117      C1118   1.399       .  A
C1117      C1122   1.404       .  A
C1117      H1133   1.083       .  S
C1118      C1119   1.403       .  A
C1118      H1134   1.084       .  S
C1119      C1129   1.403       .  A
C1119      C1120   1.412       .  A
C1120      C1126   1.411       .  A
C1120      C1121   1.412       .  A
C1121      C1123   1.412       .  A
C1121      C1122   1.411       .  A
C1122      C1130   1.403       .  A
C1123      C1132   1.403       .  A
C1123      C1124   1.403       .  A
C1124      C1125   1.399       .  A
C1124      H1135   1.084   1_554  S
C1125      C1126   1.403       .  A
C1125      H1136   1.084       .  S
C1126      C1127   1.401       .  A
C1127      C1128   1.406       .  A
C1127      H1137   1.084       .  S
C1128      C1129   1.405       .  A
C1129      H1138   1.084       .  S
C1130      C1131   1.407       .  A
C1130      H1139   1.084       .  S
C1131      C1132   1.406       .  A
C1132      H1140   1.084       .  S
C1141      C1142   1.399       .  A
C1141      C1146   1.404       .  A
C1141      H1157   1.084       .  S
C1142      C1143   1.404       .  A
C1142      H1158   1.084       .  S
C1143      C1153   1.403       .  A
C1143      C1144   1.412       .  A
C1144      C1150   1.412       .  A
C1144      C1145   1.411       .  A
C1145      C1147   1.411       .  A
C1145      C1146   1.412       .  A
C1146      C1154   1.404       .  A
C1147      C1156   1.400       .  A
C1147      C1148   1.403       .  A
C1148      C1149   1.397       .  A
C1148      H1159   1.084   1_554  S
C1149      C1150   1.402       .  A
C1149      H1160   1.083   1_554  S
C1150      C1151   1.400       .  A
C1151      C1152   1.404       .  A
C1151      H1161   1.084       .  S
C1152      C1153   1.407       .  A
C1153      H1162   1.085       .  S
C1154      C1155   1.406       .  A
C1154      H1163   1.084       .  S
C1155      C1156   1.405       .  A
C1156      H1164   1.084       .  S
C1165      C1166   1.395       .  A
C1165      C1170   1.402       .  A
C1165      H1181   1.084       .  S
C1166      C1167   1.402       .  A
C1166      H1182   1.084       .  S
C1167      C1177   1.397       .  A
C1167      C1168   1.411       .  A
C1168      C1174   1.412       .  A
C1168      C1169   1.411       .  A
C1169      C1171   1.412       .  A
C1169      C1170   1.411       .  A
C1170      C1178   1.398       .  A
C1171      C1180   1.407       .  A
C1171      C1172   1.405       .  A
C1172      C1173   1.402       .  A
C1172      H1183   1.083       .  S
C1173      C1174   1.405       .  A
C1173      H1184   1.083       .  S
C1174      C1175   1.407       .  A
C1175      C1176   1.407       .  A
C1175      H1185   1.084       .  S
C1176      C1177   1.404       .  A
C1177      H1186   1.084       .  S
C1178      C1179   1.404       .  A
C1178      H1187   1.084       .  S
C1179      C1180   1.408       .  A
C1180      H1188   1.084       .  S
C1189      C1190   1.397       .  A
C1189      C1194   1.403       .  A
C1189      H1205   1.084       .  S
C1190      C1191   1.403       .  A
C1190      H1206   1.084       .  S
C1191      C1201   1.398       .  A
C1191      C1192   1.410       .  A
C1192      C1198   1.414       .  A
C1192      C1193   1.410       .  A
C1193      C1195   1.410       .  A
C1193      C1194   1.413       .  A
C1194      C1202   1.402       .  A
C1195      C1204   1.401       .  A
C1195      C1196   1.404       .  A
C1196      C1197   1.399       .  A
C1196      H1207   1.084       .  S
C1197      C1198   1.403       .  A
C1197      H1208   1.083       .  S
C1198      C1199   1.405       .  A
C1199      C1200   1.403       .  A
C1199      H1209   1.084       .  S
C1200      C1201   1.404       .  A
C1201      H1210   1.085       .  S
C1202      C1203   1.405       .  A
C1202      H1211   1.084       .  S
C1203      C1204   1.406       .  A
C1204      H1212   1.084       .  S
C1213      C1214   1.398       .  A
C1213      C1218   1.403       .  A
C1213      H1229   1.084       .  S
C1214      C1215   1.403       .  A
C1214      H1230   1.084       .  S
C1215      C1225   1.404       .  A
C1215      C1216   1.413       .  A
C1216      C1222   1.410       .  A
C1216      C1217   1.411       .  A
C1217      C1219   1.413       .  A
C1217      C1218   1.411       .  A
C1218      C1226   1.401       .  A
C1219      C1228   1.404       .  A
C1219      C1220   1.403       .  A
C1220      C1221   1.399       .  A
C1220      H1231   1.083       .  S
C1221      C1222   1.404       .  A
C1221      H1232   1.084       .  S
C1222      C1223   1.401       .  A
C1223      C1224   1.408       .  A
C1223      H1233   1.084       .  S
C1224      C1225   1.404       .  A
C1225      H1234   1.084       .  S
C1226      C1227   1.405       .  A
C1226      H1235   1.085       .  S
C1227      C1228   1.404       .  A
C1228      H1236   1.084       .  S
C1237      C1238   1.397       .  A
C1237      C1242   1.402   1_554  A
C1237      H1253   1.084       .  S
C1238      C1239   1.403       .  A
C1238      H1254   1.084       .  S
C1239      C1249   1.398       .  A
C1239      C1240   1.410   1_554  A
C1240      C1246   1.413       .  A
C1240      C1241   1.410       .  A
C1241      C1243   1.410       .  A
C1241      C1242   1.413       .  A
C1242      C1250   1.402   1_655  A
C1243      C1252   1.400       .  A
C1243      C1244   1.404       .  A
C1244      C1245   1.399       .  A
C1244      H1255   1.084       .  S
C1245      C1246   1.404       .  A
C1245      H1256   1.084       .  S
C1246      C1247   1.405   1_556  A
C1247      C1248   1.406       .  A
C1247      H1257   1.084   1_554  S
C1248      C1249   1.406       .  A
C1249      H1258   1.084       .  S
C1250      C1251   1.403       .  A
C1250      H1259   1.084       .  S
C1251      C1252   1.407   1_455  A
C1252      H1260   1.084   1_655  S
C1261      C1262   1.397       .  A
C1261      C1266   1.402       .  A
C1261      H1277   1.083       .  S
C1262      C1263   1.403       .  A
C1262      H1278   1.084       .  S
C1263      C1273   1.400       .  A
C1263      C1264   1.410       .  A
C1264      C1270   1.414       .  A
C1264      C1265   1.414       .  A
C1265      C1267   1.411       .  A
C1265      C1266   1.413       .  A
C1266      C1274   1.402       .  A
C1267      C1276   1.406       .  A
C1267      C1268   1.405       .  A
C1268      C1269   1.402       .  A
C1268      H1279   1.084       .  S
C1269      C1270   1.405       .  A
C1269      H1280   1.083       .  S
C1270      C1271   1.411       .  A
C1271      C1272   1.407       .  A
C1271      H1281   1.084       .  S
C1272      C1273   1.406       .  A
C1273      H1282   1.085       .  S
C1274      C1275   1.405       .  A
C1274      H1283   1.084       .  S
C1275      C1276   1.408       .  A
C1276      H1284   1.084       .  S
C1285      C1286   1.398       .  A
C1285      C1290   1.403       .  A
C1285      H1301   1.084       .  S
C1286      C1287   1.403   1_545  A
C1286      H1302   1.083       .  S
C1287      C1297   1.401       .  A
C1287      C1288   1.411       .  A
C1288      C1294   1.411       .  A
C1288      C1289   1.412   1_565  A
C1289      C1291   1.412       .  A
C1289      C1290   1.411       .  A
C1290      C1298   1.401       .  A
C1291      C1300   1.405       .  A
C1291      C1292   1.404   1_545  A
C1292      C1293   1.400       .  A
C1292      H1303   1.084       .  S
C1293      C1294   1.404       .  A
C1293      H1304   1.083       .  S
C1294      C1295   1.405       .  A
C1295      C1296   1.407       .  A
C1295      H1305   1.084       .  S
C1296      C1297   1.406       .  A
C1297      H1306   1.084       .  S
C1298      C1299   1.406       .  A
C1298      H1307   1.084       .  S
C1299      C1300   1.406       .  A
C1300      H1308   1.084       .  S
C1309      C1310   1.394       .  A
C1309      C1314   1.402       .  A
C1309      H1325   1.084       .  S
C1310      C1311   1.402       .  A
C1310      H1326   1.084       .  S
C1311      C1321   1.395       .  A
C1311      C1312   1.410       .  A
C1312      C1318   1.413       .  A
C1312      C1313   1.411       .  A
C1313      C1315   1.412       .  A
C1313      C1314   1.411       .  A
C1314      C1322   1.396       .  A
C1315      C1324   1.409       .  A
C1315      C1316   1.405       .  A
C1316      C1317   1.403       .  A
C1316      H1327   1.083       .  S
C1317      C1318   1.405       .  A
C1317      H1328   1.083       .  S
C1318      C1319   1.409       .  A
C1319      C1320   1.407       .  A
C1319      H1329   1.084       .  S
C1320      C1321   1.405       .  A
C1321      H1330   1.085       .  S
C1322      C1323   1.404       .  A
C1322      H1331   1.084       .  S
C1323      C1324   1.409       .  A
C1324      H1332   1.084       .  S
C1333      C1334   1.399       .  A
C1333      C1338   1.403       .  A
C1333      H1349   1.084       .  S
C1334      C1335   1.404       .  A
C1334      H1350   1.084       .  S
C1335      C1345   1.402       .  A
C1335      C1336   1.410       .  A
C1336      C1342   1.413       .  A
C1336      C1337   1.413       .  A
C1337      C1339   1.411       .  A
C1337      C1338   1.413       .  A
C1338      C1346   1.405       .  A
C1339      C1348   1.404       .  A
C1339      C1340   1.404       .  A
C1340      C1341   1.400       .  A
C1340      H1351   1.084       .  S
C1341      C1342   1.404       .  A
C1341      H1352   1.084       .  S
C1342      C1343   1.407       .  A
C1343      C1344   1.406       .  A
C1343      H1353   1.084       .  S
C1344      C1345   1.409       .  A
C1345      H1354   1.084       .  S
C1346      C1347   1.405       .  A
C1346      H1355   1.084       .  S
C1347      C1348   1.408       .  A
C1348      H1356   1.085       .  S
C1357      C1358   1.396       .  A
C1357      C1362   1.403       .  A
C1357      H1373   1.084       .  S
C1358      C1359   1.402       .  A
C1358      H1374   1.083       .  S
C1359      C1369   1.401       .  A
C1359      C1360   1.412       .  A
C1360      C1366   1.411       .  A
C1360      C1361   1.413       .  A
C1361      C1363   1.413       .  A
C1361      C1362   1.410       .  A
C1362      C1370   1.399       .  A
C1363      C1372   1.410       .  A
C1363      C1364   1.405       .  A
C1364      C1365   1.403       .  A
C1364      H1375   1.084       .  S
C1365      C1366   1.406       .  A
C1365      H1376   1.084       .  S
C1366      C1367   1.408       .  A
C1367      C1368   1.410       .  A
C1367      H1377   1.084       .  S
C1368      C1369   1.403       .  A
C1369      H1378   1.084       .  S
C1370      C1371   1.406       .  A
C1370      H1379   1.084       .  S
C1371      C1372   1.409       .  A
C1372      H1380   1.084       .  S
C1381      C1382   1.401       .  A
C1381      C1386   1.404       .  A
C1381      H1397   1.084       .  S
C1382      C1383   1.405       .  A
C1382      H1398   1.083       .  S
C1383      C1393   1.407       .  A
C1383      C1384   1.412       .  A
C1384      C1390   1.411       .  A
C1384      C1385   1.414       .  A
C1385      C1387   1.411       .  A
C1385      C1386   1.412       .  A
C1386      C1394   1.407       .  A
C1387      C1396   1.404       .  A
C1387      C1388   1.404       .  A
C1388      C1389   1.399       .  A
C1388      H1399   1.083       .  S
C1389      C1390   1.403       .  A
C1389      H1400   1.084       .  S
C1390      C1391   1.403       .  A
C1391      C1392   1.406       .  A
C1391      H1401   1.084       .  S
C1392      C1393   1.409       .  A
C1393      H1402   1.084       .  S
C1394      C1395   1.408       .  A
C1394      H1403   1.084       .  S
C1395      C1396   1.407       .  A
C1396      H1404   1.084       .  S
C1405      C1406   1.399       .  A
C1405      C1410   1.404       .  A
C1405      H1421   1.084       .  S
C1406      C1407   1.403       .  A
C1406      H1422   1.083       .  S
C1407      C1417   1.404       .  A
C1407      C1408   1.413       .  A
C1408      C1414   1.410       .  A
C1408      C1409   1.412       .  A
C1409      C1411   1.413       .  A
C1409      C1410   1.410       .  A
C1410      C1418   1.401       .  A
C1411      C1420   1.405       .  A
C1411      C1412   1.403       .  A
C1412      C1413   1.399       .  A
C1412      H1423   1.083       .  S
C1413      C1414   1.404       .  A
C1413      H1424   1.084       .  S
C1414      C1415   1.401       .  A
C1415      C1416   1.406       .  A
C1415      H1425   1.085       .  S
C1416      C1417   1.405       .  A
C1417      H1426   1.084       .  S
C1418      C1419   1.407       .  A
C1418      H1427   1.084       .  S
C1419      C1420   1.404       .  A
C1420      H1428   1.084       .  S
C1429      C1430   1.394       .  A
C1429      C1434   1.401       .  A
C1429      H1445   1.084       .  S
C1430      C1431   1.401       .  A
C1430      H1446   1.084       .  S
C1431      C1441   1.396       .  A
C1431      C1432   1.412       .  A
C1432      C1438   1.411       .  A
C1432      C1433   1.410       .  A
C1433      C1435   1.414       .  A
C1433      C1434   1.410       .  A
C1434      C1442   1.393       .  A
C1435      C1444   1.408       .  A
C1435      C1436   1.405       .  A
C1436      C1437   1.402       .  A
C1436      H1447   1.083       .  S
C1437      C1438   1.405       .  A
C1437      H1448   1.083       .  S
C1438      C1439   1.406       .  A
C1439      C1440   1.408       .  A
C1439      H1449   1.084       .  S
C1440      C1441   1.402       .  A
C1441      H1450   1.085       .  S
C1442      C1443   1.402       .  A
C1442      H1451   1.085       .  S
C1443      C1444   1.406       .  A
C1444      H1452   1.084       .  S
C1453      C1454   1.400       .  A
C1453      C1458   1.403       .  A
C1453      H1469   1.084       .  S
C1454      C1455   1.404       .  A
C1454      H1470   1.083       .  S
C1455      C1465   1.404       .  A
C1455      C1456   1.411       .  A
C1456      C1462   1.412       .  A
C1456      C1457   1.410       .  A
C1457      C1459   1.410       .  A
C1457      C1458   1.414       .  A
C1458      C1466   1.405       .  A
C1459      C1468   1.396       .  A
C1459      C1460   1.402       .  A
C1460      C1461   1.396       .  A
C1460      H1471   1.084       .  S
C1461      C1462   1.403       .  A
C1461      H1472   1.084       .  S
C1462      C1463   1.399       .  A
C1463      C1464   1.405       .  A
C1463      H1473   1.084       .  S
C1464      C1465   1.406       .  A
C1465      H1474   1.084       .  S
C1466      C1467   1.403       .  A
C1466      H1475   1.084       .  S
C1467      C1468   1.403       .  A
C1468      H1476   1.085       .  S
C1477      C1478   1.401       .  A
C1477      C1482   1.404       .  A
C1477      H1493   1.083       .  S
C1478      C1479   1.405       .  A
C1478      H1494   1.084       .  S
C1479      C1489   1.406       .  A
C1479      C1480   1.412       .  A
C1480      C1486   1.411       .  A
C1480      C1481   1.411       .  A
C1481      C1483   1.411       .  A
C1481      C1482   1.412       .  A
C1482      C1490   1.406       .  A
C1483      C1492   1.398       .  A
C1483      C1484   1.402       .  A
C1484      C1485   1.395       .  A
C1484      H1495   1.084       .  S
C1485      C1486   1.402       .  A
C1485      H1496   1.084       .  S
C1486      C1487   1.397       .  A
C1487      C1488   1.403       .  A
C1487      H1497   1.084       .  S
C1488      C1489   1.408       .  A
C1489      H1498   1.084       .  S
C1490      C1491   1.406       .  A
C1490      H1499   1.084       .  S
C1491      C1492   1.406       .  A
C1492      H1500   1.084       .  S
C1501      C1502   1.398       .  A
C1501      C1506   1.403       .  A
C1501      H1517   1.084       .  S
C1502      C1503   1.403       .  A
C1502      H1518   1.084       .  S
C1503      C1513   1.400       .  A
C1503      C1504   1.410       .  A
C1504      C1510   1.413       .  A
C1504      C1505   1.411       .  A
C1505      C1507   1.411       .  A
C1505      C1506   1.412       .  A
C1506      C1514   1.403       .  A
C1507      C1516   1.402       .  A
C1507      C1508   1.404       .  A
C1508      C1509   1.399       .  A
C1508      H1519   1.084       .  S
C1509      C1510   1.403       .  A
C1509      H1520   1.083       .  S
C1510      C1511   1.404       .  A
C1511      C1512   1.405       .  A
C1511      H1521   1.084       .  S
C1512      C1513   1.406       .  A
C1513      H1522   1.085       .  S
C1514      C1515   1.405       .  A
C1514      H1523   1.084       .  S
C1515      C1516   1.407       .  A
C1516      H1524   1.084       .  S
C1525      C1526   1.399       .  A
C1525      C1530   1.404       .  A
C1525      H1541   1.084       .  S
C1526      C1527   1.403       .  A
C1526      H1542   1.084       .  S
C1527      C1537   1.403       .  A
C1527      C1528   1.413       .  A
C1528      C1534   1.410       .  A
C1528      C1529   1.408       .  A
C1529      C1531   1.412       .  A
C1529      C1530   1.410       .  A
C1530      C1538   1.400   1_655  A
C1531      C1540   1.397   1_655  A
C1531      C1532   1.401       .  A
C1532      C1533   1.395       .  A
C1532      H1543   1.084   1_655  S
C1533      C1534   1.402       .  A
C1533      H1544   1.084       .  S
C1534      C1535   1.395       .  A
C1535      C1536   1.404       .  A
C1535      H1545   1.084       .  S
C1536      C1537   1.405       .  A
C1537      H1546   1.084       .  S
C1538      C1539   1.406       .  A
C1538      H1547   1.084       .  S
C1539      C1540   1.402       .  A
C1540      H1548   1.084       .  S
C1549      C1550   1.400       .  A
C1549      C1554   1.404       .  A
C1549      H1565   1.084       .  S
C1550      C1551   1.404       .  A
C1550      H1566   1.084       .  S
C1551      C1561   1.405       .  A
C1551      C1552   1.412       .  A
C1552      C1558   1.411       .  A
C1552      C1553   1.414       .  A
C1553      C1555   1.413       .  A
C1553      C1554   1.411       .  A
C1554      C1562   1.404       .  A
C1555      C1564   1.407       .  A
C1555      C1556   1.403       .  A
C1556      C1557   1.400       .  A
C1556      H1567   1.083       .  S
C1557      C1558   1.403       .  A
C1557      H1568   1.083       .  S
C1558      C1559   1.404       .  A
C1559      C1560   1.406       .  A
C1559      H1569   1.084       .  S
C1560      C1561   1.407       .  A
C1561      H1570   1.084       .  S
C1562      C1563   1.408       .  A
C1562      H1571   1.084       .  S
C1563      C1564   1.405       .  A
C1564      H1572   1.084       .  S
C1573      C1574   1.401       .  A
C1573      C1578   1.404       .  A
C1573      H1589   1.084       .  S
C1574      C1575   1.404       .  A
C1574      H1590   1.083       .  S
C1575      C1585   1.406       .  A
C1575      C1576   1.411       .  A
C1576      C1582   1.413       .  A
C1576      C1577   1.417       .  A
C1577      C1579   1.410       .  A
C1577      C1578   1.413       .  A
C1578      C1586   1.409       .  A
C1579      C1588   1.407       .  A
C1579      C1580   1.405       .  A
C1580      C1581   1.402       .  A
C1580      H1591   1.083       .  S
C1581      C1582   1.404       .  A
C1581      H1592   1.084       .  S
C1582      C1583   1.409       .  A
C1583      C1584   1.409       .  A
C1583      H1593   1.084       .  S
C1584      C1585   1.409       .  A
C1585      H1594   1.084       .  S
C1586      C1587   1.407       .  A
C1586      H1595   1.084       .  S
C1587      C1588   1.410       .  A
C1588      H1596   1.084       .  S
C1597      C1598   1.400       .  A
C1597      C1602   1.404       .  A
C1597      H1613   1.084       .  S
C1598      C1599   1.404       .  A
C1598      H1614   1.083       .  S
C1599      C1609   1.406       .  A
C1599      C1600   1.413       .  A
C1600      C1606   1.411       .  A
C1600      C1601   1.411       .  A
C1601      C1603   1.413       .  A
C1601      C1602   1.411       .  A
C1602      C1610   1.403       .  A
C1603      C1612   1.400       .  A
C1603      C1604   1.402       .  A
C1604      C1605   1.397       .  A
C1604      H1615   1.084       .  S
C1605      C1606   1.403       .  A
C1605      H1616   1.083       .  S
C1606      C1607   1.399       .  A
C1607      C1608   1.405       .  A
C1607      H1617   1.084       .  S
C1608      C1609   1.407       .  A
C1609      H1618   1.084       .  S
C1610      C1611   1.406       .  A
C1610      H1619   1.085       .  S
C1611      C1612   1.403       .  A
C1612      H1620   1.084       .  S
C1621      C1622   1.399       .  A
C1621      C1626   1.404       .  A
C1621      H1637   1.084       .  S
C1622      C1623   1.403       .  A
C1622      H1638   1.084       .  S
C1623      C1633   1.404       .  A
C1623      C1624   1.413       .  A
C1624      C1630   1.410       .  A
C1624      C1625   1.411       .  A
C1625      C1627   1.413       .  A
C1625      C1626   1.411       .  A
C1626      C1634   1.401       .  A
C1627      C1636   1.402       .  A
C1627      C1628   1.403       .  A
C1628      C1629   1.397       .  A
C1628      H1639   1.083       .  S
C1629      C1630   1.403       .  A
C1629      H1640   1.084       .  S
C1630      C1631   1.399       .  A
C1631      C1632   1.406       .  A
C1631      H1641   1.084       .  S
C1632      C1633   1.405       .  A
C1633      H1642   1.084       .  S
C1634      C1635   1.406       .  A
C1634      H1643   1.085       .  S
C1635      C1636   1.405       .  A
C1636      H1644   1.084       .  S
C1645      C1646   1.398       .  A
C1645      C1650   1.403       .  A
C1645      H1661   1.085       .  S
C1646      C1647   1.404       .  A
C1646      H1662   1.083       .  S
C1647      C1657   1.401       .  A
C1647      C1648   1.410       .  A
C1648      C1654   1.414       .  A
C1648      C1649   1.413       .  A
C1649      C1651   1.410       .  A
C1649      C1650   1.413       .  A
C1650      C1658   1.403       .  A
C1651      C1660   1.404       .  A
C1651      C1652   1.404       .  A
C1652      C1653   1.400       .  A
C1652      H1663   1.083       .  S
C1653      C1654   1.403       .  A
C1653      H1664   1.084       .  S
C1654      C1655   1.407       .  A
C1655      C1656   1.404       .  A
C1655      H1665   1.085       .  S
C1656      C1657   1.407       .  A
C1657      H1666   1.084       .  S
C1658      C1659   1.405       .  A
C1658      H1667   1.085       .  S
C1659      C1660   1.408       .  A
C1660      H1668   1.084       .  S
C1669      C1670   1.398       .  A
C1669      C1674   1.403       .  A
C1669      H1685   1.084       .  S
C1670      C1671   1.403       .  A
C1670      H1686   1.084       .  S
C1671      C1681   1.403       .  A
C1671      C1672   1.413       .  A
C1672      C1678   1.410       .  A
C1672      C1673   1.412       .  A
C1673      C1675   1.413       .  A
C1673      C1674   1.410       .  A
C1674      C1682   1.400       .  A
C1675      C1684   1.406       .  A
C1675      C1676   1.404       .  A
C1676      C1677   1.400       .  A
C1676      H1687   1.083       .  S
C1677      C1678   1.404       .  A
C1677      H1688   1.084       .  S
C1678      C1679   1.403       .  A
C1679      C1680   1.408       .  A
C1679      H1689   1.084       .  S
C1680      C1681   1.405       .  A
C1681      H1690   1.084       .  S
C1682      C1683   1.407       .  A
C1682      H1691   1.084       .  S
C1683      C1684   1.406       .  A
C1684      H1692   1.084       .  S
C1693      C1694   1.398       .  A
C1693      C1698   1.403       .  A
C1693      H1709   1.084       .  S
C1694      C1695   1.404       .  A
C1694      H1710   1.084       .  S
C1695      C1705   1.401       .  A
C1695      C1696   1.411       .  A
C1696      C1702   1.413       .  A
C1696      C1697   1.410       .  A
C1697      C1699   1.411       .  A
C1697      C1698   1.413       .  A
C1698      C1706   1.403       .  A
C1699      C1708   1.400       .  A
C1699      C1700   1.404       .  A
C1700      C1701   1.398       .  A
C1700      H1711   1.084       .  S
C1701      C1702   1.402       .  A
C1701      H1712   1.084       .  S
C1702      C1703   1.402       .  A
C1703      C1704   1.403       .  A
C1703      H1713   1.084       .  S
C1704      C1705   1.406       .  A
C1705      H1714   1.085       .  S
C1706      C1707   1.404       .  A
C1706      H1715   1.084       .  S
C1707      C1708   1.406       .  A
C1708      H1716   1.085       .  S
C1717      C1718   1.403       .  A
C1717      C1722   1.405       .  A
C1717      H1733   1.083       .  S
C1718      C1719   1.405       .  A
C1718      H1734   1.083       .  S
C1719      C1729   1.412       .  A
C1719      C1720   1.414       .  A
C1720      C1726   1.409       .  A
C1720      C1721   1.411       .  A
C1721      C1723   1.412       .  A
C1721      C1722   1.411       .  A
C1722      C1730   1.407       .  A
C1723      C1732   1.398       .  A
C1723      C1724   1.401       .  A
C1724      C1725   1.394       .  A
C1724      H1735   1.084       .  S
C1725      C1726   1.402       .  A
C1725      H1736   1.084       .  S
C1726      C1727   1.394       .  A
C1727      C1728   1.406       .  A
C1727      H1737   1.084       .  S
C1728      C1729   1.408       .  A
C1729      H1738   1.084       .  S
C1730      C1731   1.408       .  A
C1730      H1739   1.084       .  S
C1731      C1732   1.404       .  A
C1732      H1740   1.085       .  S
C1741      C1742   1.401       .  A
C1741      C1746   1.405       .  A
C1741      H1757   1.083       .  S
C1742      C1743   1.404       .  A
C1742      H1758   1.084       .  S
C1743      C1753   1.406       .  A
C1743      C1744   1.413       .  A
C1744      C1750   1.410       .  A
C1744      C1745   1.411       .  A
C1745      C1747   1.412       .  A
C1745      C1746   1.411       .  A
C1746      C1754   1.404       .  A
C1747      C1756   1.401       .  A
C1747      C1748   1.402       .  A
C1748      C1749   1.396       .  A
C1748      H1759   1.084       .  S
C1749      C1750   1.403       .  A
C1749      H1760   1.084       .  S
C1750      C1751   1.398       .  A
C1751      C1752   1.406       .  A
C1751      H1761   1.084       .  S
C1752      C1753   1.406       .  A
C1753      H1762   1.084       .  S
C1754      C1755   1.409       .  A
C1754      H1763   1.084       .  S
C1755      C1756   1.404       .  A
C1756      H1764   1.084       .  S
C1765      C1766   1.398       .  A
C1765      C1770   1.404       .  A
C1765      H1781   1.083       .  S
C1766      C1767   1.402       .  A
C1766      H1782   1.084       .  S
C1767      C1777   1.403       .  A
C1767      C1768   1.414       .  A
C1768      C1774   1.410       .  A
C1768      C1769   1.410       .  A
C1769      C1771   1.413       .  A
C1769      C1770   1.410       .  A
C1770      C1778   1.401   1_565  A
C1771      C1780   1.403   1_565  A
C1771      C1772   1.403       .  A
C1772      C1773   1.398       .  A
C1772      H1783   1.084       .  S
C1773      C1774   1.403       .  A
C1773      H1784   1.084       .  S
C1774      C1775   1.399       .  A
C1775      C1776   1.405   1_455  A
C1775      H1785   1.085   1_455  S
C1776      C1777   1.401   1_655  A
C1777      H1786   1.084   1_455  S
C1778      C1779   1.407       .  A
C1778      H1787   1.084       .  S
C1779      C1780   1.404       .  A
C1780      H1788   1.084       .  S
C1789      C1790   1.399   1_455  A
C1789      C1794   1.403       .  A
C1789      H1805   1.084       .  S
C1790      C1791   1.404       .  A
C1790      H1806   1.083       .  S
C1791      C1801   1.402       .  A
C1791      C1792   1.411       .  A
C1792      C1798   1.412       .  A
C1792      C1793   1.409   1_655  A
C1793      C1795   1.411       .  A
C1793      C1794   1.413       .  A
C1794      C1802   1.403       .  A
C1795      C1804   1.397       .  A
C1795      C1796   1.402       .  A
C1796      C1797   1.396   1_455  A
C1796      H1807   1.084       .  S
C1797      C1798   1.402       .  A
C1797      H1808   1.084       .  S
C1798      C1799   1.400       .  A
C1799      C1800   1.404       .  A
C1799      H1809   1.084       .  S
C1800      C1801   1.407       .  A
C1801      H1810   1.084       .  S
C1802      C1803   1.403       .  A
C1802      H1811   1.084       .  S
C1803      C1804   1.404       .  A
C1804      H1812   1.085       .  S
C1813      C1814   1.399       .  A
C1813      C1818   1.404       .  A
C1813      H1829   1.083       .  S
C1814      C1815   1.404       .  A
C1814      H1830   1.084       .  S
C1815      C1825   1.403       .  A
C1815      C1816   1.412       .  A
C1816      C1822   1.411       .  A
C1816      C1817   1.411       .  A
C1817      C1819   1.412       .  A
C1817      C1818   1.411       .  A
C1818      C1826   1.402       .  A
C1819      C1828   1.401       .  A
C1819      C1820   1.403       .  A
C1820      C1821   1.397       .  A
C1820      H1831   1.084       .  S
C1821      C1822   1.403       .  A
C1821      H1832   1.084       .  S
C1822      C1823   1.400       .  A
C1823      C1824   1.405       .  A
C1823      H1833   1.084       .  S
C1824      C1825   1.406       .  A
C1825      H1834   1.084       .  S
C1826      C1827   1.406       .  A
C1826      H1835   1.084       .  S
C1827      C1828   1.405       .  A
C1828      H1836   1.084       .  S
C1837      C1838   1.396       .  A
C1837      C1842   1.402       .  A
C1837      H1853   1.083       .  S
C1838      C1839   1.402   1_545  A
C1838      H1854   1.084       .  S
C1839      C1849   1.398       .  A
C1839      C1840   1.410       .  A
C1840      C1846   1.414       .  A
C1840      C1841   1.413       .  A
C1841      C1843   1.411       .  A
C1841      C1842   1.412   1_565  A
C1842      C1850   1.400       .  A
C1843      C1852   1.409       .  A
C1843      C1844   1.406       .  A
C1844      C1845   1.403       .  A
C1844      H1855   1.083       .  S
C1845      C1846   1.405       .  A
C1845      H1856   1.085       .  S
C1846      C1847   1.410       .  A
C1847      C1848   1.407       .  A
C1847      H1857   1.085       .  S
C1848      C1849   1.404       .  A
C1849      H1858   1.085       .  S
C1850      C1851   1.404       .  A
C1850      H1859   1.084       .  S
C1851      C1852   1.410   1_545  A
C1852      H1860   1.084       .  S
C1861      C1862   1.400       .  A
C1861      C1866   1.404       .  A
C1861      H1877   1.083       .  S
C1862      C1863   1.404       .  A
C1862      H1878   1.083       .  S
C1863      C1873   1.405       .  A
C1863      C1864   1.411       .  A
C1864      C1870   1.412       .  A
C1864      C1865   1.413       .  A
C1865      C1867   1.410       .  A
C1865      C1866   1.413       .  A
C1866      C1874   1.407       .  A
C1867      C1876   1.400       .  A
C1867      C1868   1.403       .  A
C1868      C1869   1.398       .  A
C1868      H1879   1.084       .  S
C1869      C1870   1.403       .  A
C1869      H1880   1.084       .  S
C1870      C1871   1.404       .  A
C1871      C1872   1.407       .  A
C1871      H1881   1.084       .  S
C1872      C1873   1.407       .  A
C1873      H1882   1.084       .  S
C1874      C1875   1.407       .  A
C1874      H1883   1.084       .  S
C1875      C1876   1.407       .  A
C1876      H1884   1.084       .  S
C1885      C1886   1.398       .  A
C1885      C1890   1.403       .  A
C1885      H1901   1.084       .  S
C1886      C1887   1.403       .  A
C1886      H1902   1.084       .  S
C1887      C1897   1.401       .  A
C1887      C1888   1.411       .  A
C1888      C1894   1.412       .  A
C1888      C1889   1.411       .  A
C1889      C1891   1.411       .  A
C1889      C1890   1.412       .  A
C1890      C1898   1.402       .  A
C1891      C1900   1.403       .  A
C1891      C1892   1.404       .  A
C1892      C1893   1.399       .  A
C1892      H1903   1.083       .  S
C1893      C1894   1.403       .  A
C1893      H1904   1.084       .  S
C1894      C1895   1.404       .  A
C1895      C1896   1.406       .  A
C1895      H1905   1.084       .  S
C1896      C1897   1.406       .  A
C1897      H1906   1.084       .  S
C1898      C1899   1.406       .  A
C1898      H1907   1.084       .  S
C1899      C1900   1.406       .  A
C1900      H1908   1.084       .  S
C1909      C1910   1.399       .  A
C1909      C1914   1.403       .  A
C1909      H1925   1.084       .  S
C1910      C1911   1.404       .  A
C1910      H1926   1.084       .  S
C1911      C1921   1.402       .  A
C1911      C1912   1.411       .  A
C1912      C1918   1.413       .  A
C1912      C1913   1.411       .  A
C1913      C1915   1.411       .  A
C1913      C1914   1.413       .  A
C1914      C1922   1.403       .  A
C1915      C1924   1.401       .  A
C1915      C1916   1.404   1_655  A
C1916      C1917   1.399       .  A
C1916      H1927   1.084       .  S
C1917      C1918   1.403   1_455  A
C1917      H1928   1.084       .  S
C1918      C1919   1.404   1_655  A
C1919      C1920   1.404   1_455  A
C1919      H1929   1.084       .  S
C1920      C1921   1.406       .  A
C1921      H1930   1.085       .  S
C1922      C1923   1.403       .  A
C1922      H1931   1.084       .  S
C1923      C1924   1.406       .  A
C1924      H1932   1.085       .  S
C1933      C1934   1.403       .  A
C1933      C1938   1.406       .  A
C1933      H1949   1.084       .  S
C1934      C1935   1.405       .  A
C1934      H1950   1.083       .  S
C1935      C1945   1.411       .  A
C1935      C1936   1.415       .  A
C1936      C1942   1.410       .  A
C1936      C1937   1.413       .  A
C1937      C1939   1.413       .  A
C1937      C1938   1.410       .  A
C1938      C1946   1.406       .  A
C1939      C1948   1.401       .  A
C1939      C1940   1.402       .  A
C1940      C1941   1.396       .  A
C1940      H1951   1.084       .  S
C1941      C1942   1.402       .  A
C1941      H1952   1.084       .  S
C1942      C1943   1.397       .  A
C1943      C1944   1.404       .  A
C1943      H1953   1.085       .  S
C1944      C1945   1.407       .  A
C1945      H1954   1.084       .  S
C1946      C1947   1.410       .  A
C1946      H1955   1.084       .  S
C1947      C1948   1.403       .  A
C1948      H1956   1.084       .  S
C1957      C1958   1.401       .  A
C1957      C1962   1.405       .  A
C1957      H1973   1.083       .  S
C1958      C1959   1.403       .  A
C1958      H1974   1.084       .  S
C1959      C1969   1.407       .  A
C1959      C1960   1.414       .  A
C1960      C1966   1.410       .  A
C1960      C1961   1.413       .  A
C1961      C1963   1.413       .  A
C1961      C1962   1.410       .  A
C1962      C1970   1.405       .  A
C1963      C1972   1.405       .  A
C1963      C1964   1.403       .  A
C1964      C1965   1.398       .  A
C1964      H1975   1.084       .  S
C1965      C1966   1.403       .  A
C1965      H1976   1.084       .  S
C1966      C1967   1.400       .  A
C1967      C1968   1.406       .  A
C1967      H1977   1.085       .  S
C1968      C1969   1.404       .  A
C1969      H1978   1.084       .  S
C1970      C1971   1.409       .  A
C1970      H1979   1.084       .  S
C1971      C1972   1.406       .  A
C1972      H1980   1.084       .  S
C1981      C1982   1.394       .  A
C1981      C1986   1.402       .  A
C1981      H1997   1.084       .  S
C1982      C1983   1.401       .  A
C1982      H1998   1.084       .  S
C1983      C1993   1.396       .  A
C1983      C1984   1.411       .  A
C1984      C1990   1.413       .  A
C1984      C1985   1.412       .  A
C1985      C1987   1.412       .  A
C1985      C1986   1.411       .  A
C1986      C1994   1.397       .  A
C1987      C1996   1.409       .  A
C1987      C1988   1.406       .  A
C1988      C1989   1.403       .  A
C1988      H1999   1.084       .  S
C1989      C1990   1.405       .  A
C1989      H2000   1.083       .  S
C1990      C1991   1.409       .  A
C1991      C1992   1.407       .  A
C1991      H2001   1.084       .  S
C1992      C1993   1.402       .  A
C1993      H2002   1.085       .  S
C1994      C1995   1.403       .  A
C1994      H2003   1.084       .  S
C1995      C1996   1.410       .  A
C1996      H2004   1.084       .  S
C2005      C2006   1.401       .  A
C2005      C2010   1.404       .  A
C2005      H2021   1.084       .  S
C2006      C2007   1.405       .  A
C2006      H2022   1.083       .  S
C2007      C2017   1.408       .  A
C2007      C2008   1.412       .  A
C2008      C2014   1.411       .  A
C2008      C2009   1.415       .  A
C2009      C2011   1.411       .  A
C2009      C2010   1.412       .  A
C2010      C2018   1.407       .  A
C2011      C2020   1.404       .  A
C2011      C2012   1.404       .  A
C2012      C2013   1.399       .  A
C2012      H2023   1.084       .  S
C2013      C2014   1.404       .  A
C2013      H2024   1.084       .  S
C2014      C2015   1.405       .  A
C2015      C2016   1.407       .  A
C2015      H2025   1.084       .  S
C2016      C2017   1.409       .  A
C2017      H2026   1.084       .  S
C2018      C2019   1.407       .  A
C2018      H2027   1.084       .  S
C2019      C2020   1.408       .  A
C2020      H2028   1.084       .  S
C2029      C2030   1.398       .  A
C2029      C2034   1.403       .  A
C2029      H2045   1.084       .  S
C2030      C2031   1.402       .  A
C2030      H2046   1.083       .  S
C2031      C2041   1.401       .  A
C2031      C2032   1.413       .  A
C2032      C2038   1.411       .  A
C2032      C2033   1.409       .  A
C2033      C2035   1.413       .  A
C2033      C2034   1.411       .  A
C2034      C2042   1.400       .  A
C2035      C2044   1.402       .  A
C2035      C2036   1.403       .  A
C2036      C2037   1.398       .  A
C2036      H2047   1.083       .  S
C2037      C2038   1.403       .  A
C2037      H2048   1.084       .  S
C2038      C2039   1.400       .  A
C2039      C2040   1.405       .  A
C2039      H2049   1.085       .  S
C2040      C2041   1.403       .  A
C2041      H2050   1.084       .  S
C2042      C2043   1.405       .  A
C2042      H2051   1.085       .  S
C2043      C2044   1.403       .  A
C2044      H2052   1.084       .  S
C2053      C2054   1.395       .  A
C2053      C2058   1.401       .  A
C2053      H2069   1.084       .  S
C2054      C2055   1.402       .  A
C2054      H2070   1.084       .  S
C2055      C2065   1.396       .  A
C2055      C2056   1.411       .  A
C2056      C2062   1.412       .  A
C2056      C2057   1.408       .  A
C2057      C2059   1.412       .  A
C2057      C2058   1.412       .  A
C2058      C2066   1.396       .  A
C2059      C2068   1.403       .  A
C2059      C2060   1.404       .  A
C2060      C2061   1.399       .  A
C2060      H2071   1.084       .  S
C2061      C2062   1.404       .  A
C2061      H2072   1.084       .  S
C2062      C2063   1.403       .  A
C2063      C2064   1.405       .  A
C2063      H2073   1.084       .  S
C2064      C2065   1.404       .  A
C2065      H2074   1.084       .  S
C2066      C2067   1.401       .  A
C2066      H2075   1.085       .  S
C2067      C2068   1.407       .  A
C2068      H2076   1.085       .  S
C2077      C2078   1.398       .  A
C2077      C2082   1.403       .  A
C2077      H2093   1.084       .  S
C2078      C2079   1.403       .  A
C2078      H2094   1.084       .  S
C2079      C2089   1.403       .  A
C2079      C2080   1.413       .  A
C2080      C2086   1.410       .  A
C2080      C2081   1.412       .  A
C2081      C2083   1.414       .  A
C2081      C2082   1.410       .  A
C2082      C2090   1.399       .  A
C2083      C2092   1.406       .  A
C2083      C2084   1.403       .  A
C2084      C2085   1.400       .  A
C2084      H2095   1.083       .  S
C2085      C2086   1.404       .  A
C2085      H2096   1.083       .  S
C2086      C2087   1.403       .  A
C2087      C2088   1.408       .  A
C2087      H2097   1.084       .  S
C2088      C2089   1.406       .  A
C2089      H2098   1.084       .  S
C2090      C2091   1.406       .  A
C2090      H2099   1.085       .  S
C2091      C2092   1.404       .  A
C2092      H2100   1.084       .  S
C2101      C2102   1.398       .  A
C2101      C2106   1.403       .  A
C2101      H2117   1.084       .  S
C2102      C2103   1.404       .  A
C2102      H2118   1.084       .  S
C2103      C2113   1.402       .  A
C2103      C2104   1.411       .  A
C2104      C2110   1.413       .  A
C2104      C2105   1.413       .  A
C2105      C2107   1.411       .  A
C2105      C2106   1.413       .  A
C2106      C2114   1.403       .  A
C2107      C2116   1.404       .  A
C2107      C2108   1.404       .  A
C2108      C2109   1.400       .  A
C2108      H2119   1.084       .  S
C2109      C2110   1.404       .  A
C2109      H2120   1.083       .  S
C2110      C2111   1.406       .  A
C2111      C2112   1.405       .  A
C2111      H2121   1.084       .  S
C2112      C2113   1.407       .  A
C2113      H2122   1.084       .  S
C2114      C2115   1.404       .  A
C2114      H2123   1.084       .  S
C2115      C2116   1.408       .  A
C2116      H2124   1.085       .  S
C2125      C2126   1.402       .  A
C2125      C2130   1.405       .  A
C2125      H2141   1.084       .  S
C2126      C2127   1.405       .  A
C2126      H2142   1.083       .  S
C2127      C2137   1.408       .  A
C2127      C2128   1.413       .  A
C2128      C2134   1.410       .  A
C2128      C2129   1.412       .  A
C2129      C2131   1.412       .  A
C2129      C2130   1.412       .  A
C2130      C2138   1.408       .  A
C2131      C2140   1.398       .  A
C2131      C2132   1.402       .  A
C2132      C2133   1.396       .  A
C2132      H2143   1.084       .  S
C2133      C2134   1.402       .  A
C2133      H2144   1.084       .  S
C2134      C2135   1.398       .  A
C2135      C2136   1.405       .  A
C2135      H2145   1.085       .  S
C2136      C2137   1.406       .  A
C2137      H2146   1.084       .  S
C2138      C2139   1.409       .  A
C2138      H2147   1.084       .  S
C2139      C2140   1.403       .  A
C2140      H2148   1.084       .  S
C2149      C2150   1.399       .  A
C2149      C2154   1.404       .  A
C2149      H2165   1.084       .  S
C2150      C2151   1.404       .  A
C2150      H2166   1.084       .  S
C2151      C2161   1.404   1_545  A
C2151      C2152   1.413       .  A
C2152      C2158   1.410       .  A
C2152      C2153   1.409       .  A
C2153      C2155   1.414       .  A
C2153      C2154   1.411       .  A
C2154      C2162   1.400       .  A
C2155      C2164   1.400       .  A
C2155      C2156   1.402       .  A
C2156      C2157   1.396       .  A
C2156      H2167   1.084       .  S
C2157      C2158   1.403       .  A
C2157      H2168   1.084       .  S
C2158      C2159   1.398   1_545  A
C2159      C2160   1.405       .  A
C2159      H2169   1.084       .  S
C2160      C2161   1.406       .  A
C2161      H2170   1.084       .  S
C2162      C2163   1.405       .  A
C2162      H2171   1.085       .  S
C2163      C2164   1.400       .  A
C2164      H2172   1.085       .  S
C2173      C2174   1.397       .  A
C2173      C2178   1.403       .  A
C2173      H2189   1.084       .  S
C2174      C2175   1.402       .  A
C2174      H2190   1.084       .  S
C2175      C2185   1.399       .  A
C2175      C2176   1.412       .  A
C2176      C2182   1.411       .  A
C2176      C2177   1.409       .  A
C2177      C2179   1.412       .  A
C2177      C2178   1.411       .  A
C2178      C2186   1.398       .  A
C2179      C2188   1.402       .  A
C2179      C2180   1.403       .  A
C2180      C2181   1.399       .  A
C2180      H2191   1.084       .  S
C2181      C2182   1.404       .  A
C2181      H2192   1.083       .  S
C2182      C2183   1.402       .  A
C2183      C2184   1.406       .  A
C2183      H2193   1.084       .  S
C2184      C2185   1.404       .  A
C2185      H2194   1.084       .  S
C2186      C2187   1.406       .  A
C2186      H2195   1.084       .  S
C2187      C2188   1.404       .  A
C2188      H2196   1.084       .  S
