geometry optimzed in LAMMPS
_audit_creation_date              2020-12-01 
_audit_creation_method            'lammps2cif' 
_symmetry_space_group_name_H-M    'P1' 
_symmetry_Int_Tables_number       1 
_symmetry_cell_setting            triclinic 
loop_ 
_symmetry_equiv_pos_as_xyz 
  x,y,z 
_cell_length_a                    61.19086714 
_cell_length_b                    61.38394198732386 
_cell_length_c                    31.748411150420065 
_cell_angle_alpha                 89.7226205640256 
_cell_angle_beta                  90.13307148972643 
_cell_angle_gamma                 89.42839765279372 
loop_ 
_atom_site_label 
_atom_site_type_symbol 
_atom_site_fract_x 
_atom_site_fract_y 
_atom_site_fract_z 
_atom_site_charge 
O1          O  0.31156994  0.31977180  0.04863767    -0.55500
C2          C  0.34489384  0.27413577  0.13462517     0.77200
O3          O  0.36423369  0.27953007  0.00862381    -0.56600
C4          C  0.31619357  0.32554599  0.01118790     0.77100
C5          C  0.37816389  0.33436189  0.09569437     0.79500
Cd6        Cd  0.34774762  0.30314770  0.06352610     1.37500
O7          O  0.32972425  0.28798734  0.12718241    -0.55500
O8          O  0.35814118  0.33423540  0.10576626    -0.54300
C9          C  0.34749580  0.26733521  0.00715838     0.79500
O10         O  0.38422945  0.32039163  0.06857164    -0.56700
O11         O  0.36135292  0.27489795  0.11061933    -0.55100
O12         O  0.33601089  0.32327891  0.00038998    -0.55100
O13         O  0.33198785  0.27205588  0.03179305    -0.54300
O14         O  0.44449156  0.45953529  0.22272550    -0.55500
C15         C  0.48512047  0.43487417  0.11856912     0.77200
O16         O  0.49663680  0.41360331  0.24302249    -0.56600
C17         C  0.44250749  0.45267591  0.26042220     0.77100
C18         C  0.43702229  0.39492033  0.17513067     0.79500
Cd19       Cd  0.46658240  0.42818638  0.19943781     1.37500
O20         O  0.47364739  0.45002765  0.13492016    -0.55500
O21         O  0.43231509  0.41502484  0.17262320    -0.54300
C22         C  0.50679759  0.43158948  0.24453059     0.79500
O23         O  0.45526582  0.38985041  0.19194249    -0.56700
O24         O  0.48665761  0.41719289  0.13895970    -0.55100
O25         O  0.45052472  0.43398714  0.26843998    -0.55100
O26         O  0.49856389  0.44733970  0.22388894    -0.54300
O27         O  0.09745060  0.47445727  0.19921858    -0.55500
C28         C  0.05793635  0.42997493  0.27579807     0.77200
O29         O  0.06736428  0.41559258  0.15240029    -0.56600
C30         C  0.10504680  0.47225965  0.16221220     0.77100
C31         C  0.12167332  0.40897370  0.23806793     0.79500
Cd32       Cd  0.08696428  0.43586704  0.20685099     1.37500
O33         O  0.06858426  0.44760697  0.27210493    -0.55500
O34         O  0.11554647  0.42610362  0.25689468    -0.54300
C35         C  0.05207438  0.42974449  0.14949419     0.79500
O36         O  0.11240894  0.40482003  0.20320396    -0.56700
O37         O  0.06120235  0.41563563  0.24798053    -0.55100
O38         O  0.10616138  0.45297704  0.14835346    -0.55100
O39         O  0.05368999  0.44642355  0.17248052    -0.54300
O40         O  0.25186895  0.32413510  0.34991663    -0.55500
C41         C  0.20932711  0.28469337  0.26822135     0.77200
O42         O  0.19204663  0.29347551  0.39135177    -0.56600
C43         C  0.24828089  0.33134597  0.38679411     0.77100
C44         C  0.18514088  0.34901571  0.30916519     0.79500
Cd45       Cd  0.21290712  0.31403788  0.33787033     1.37500
O46         O  0.22652756  0.29591201  0.27320328    -0.55500
O47         O  0.20285458  0.34412782  0.29070914    -0.54300
C48         C  0.20688826  0.27894963  0.39564382     0.79500
O49         O  0.18083015  0.33849607  0.34259939    -0.56700
O50         O  0.19406174  0.28803512  0.29428032    -0.55100
O51         O  0.22842910  0.33300400  0.39750021    -0.55100
O52         O  0.22383426  0.28123112  0.37343949    -0.54300
O53         O  0.43743004  0.51125035  0.42526946    -0.55500
C54         C  0.47619609  0.55599041  0.00160009     0.77200
O55         O  0.46191727  0.57035388  0.37738190    -0.56600
C56         C  0.42805510  0.51451719  0.38994523     0.77100
C57         C  0.40957296  0.57379276  0.47333769     0.79500
Cd58       Cd  0.44498388  0.55015321  0.43623772     1.37500
O59         O  0.46613612  0.53802334  0.99805495    -0.55500
O60         O  0.41594375  0.55547867  0.48759926    -0.54300
C61         C  0.47744021  0.55650830  0.37344709     0.79500
O62         O  0.41890454  0.58066908  0.44015494    -0.56700
O63         O  0.47105522  0.57092762  0.97568812    -0.55100
O64         O  0.42386259  0.53415884  0.38023339    -0.55100
O65         O  0.47739919  0.54046678  0.39857640    -0.54300
O66         O  0.28573974  0.65222628  0.11413690    -0.55500
C67         C  0.32531089  0.69208350  0.52207567     0.77200
O68         O  0.34326390  0.68610686  0.14506882    -0.56600
C69         C  0.29131974  0.64713769  0.15165908     0.77100
C70         C  0.34860499  0.62951784  0.06041484     0.79500
Cd71       Cd  0.32291635  0.66409753  0.09421527     1.37500
O72         O  0.30754355  0.68261049  0.03129382    -0.55500
O73         O  0.32977898  0.63427391  0.04613028    -0.54300
C74         C  0.32809549  0.70043237  0.14762185     0.79500
O75         O  0.35495874  0.63960871  0.09304216    -0.56700
O76         O  0.34172715  0.68743486  0.04566023    -0.55100
O77         O  0.31161649  0.64699838  0.15952036    -0.55100
O78         O  0.31156660  0.69797070  0.12417137    -0.54300
O79         O  0.09648029  0.53651674  0.50685313    -0.55500
C80         C  0.04600394  0.56412565  0.42368200     0.77200
O81         O  0.05139116  0.58484520  0.04434818    -0.56600
C82         C  0.10073740  0.54219121  0.04471239     0.77100
C83         C  0.10556892  0.60013970  0.45378909     0.79500
Cd84       Cd  0.07607307  0.56989960  0.49023624     1.37500
O85         O  0.06064774  0.54965647  0.43066542    -0.55500
O86         O  0.10663383  0.57982517  0.44712775    -0.54300
C87         C  0.04107743  0.56692413  0.04741117     0.79500
O88         O  0.09078015  0.60687793  0.47877652    -0.56700
O89         O  0.04685269  0.58124828  0.44562351    -0.55100
O90         O  0.09590606  0.56159287  0.05497865    -0.55100
O91         O  0.04702652  0.55156257  0.02350169    -0.54300
O92         O  0.23403120  0.66420420  0.31949352    -0.55500
C93         C  0.20380106  0.71152347  0.40644784     0.77200
O94         O  0.18431684  0.70825554  0.27953844    -0.56600
C95         C  0.22817181  0.65861569  0.28261184     0.77100
C96         C  0.16719587  0.65536413  0.36794009     0.79500
Cd97       Cd  0.19954606  0.68397843  0.33477206     1.37500
O98         O  0.21931716  0.69857631  0.39653258    -0.55500
O99         O  0.18739259  0.65333320  0.37622264    -0.54300
C100        C  0.20177823  0.71928923  0.27666046     0.79500
O101        O  0.16181674  0.67023635  0.34179482    -0.56700
O102        O  0.18661556  0.71057084  0.38435250    -0.55100
O103        O  0.20844198  0.66257969  0.27279832    -0.55100
O104        O  0.21720471  0.71403342  0.30136913    -0.54300
O105        O  0.56082976  0.54988950  0.24367153    -0.55500
C106        C  0.60479128  0.54267994  0.13343033     0.77200
O107        O  0.55529534  0.58592313  0.12942667    -0.56600
C108        C  0.54701732  0.56507234  0.25096440     0.77100
C109        C  0.60779794  0.59787464  0.22762304     0.79500
Cd110      Cd  0.57844556  0.56982445  0.18564126     1.37500
O111        O  0.59847542  0.53622570  0.16954714    -0.55500
O112        O  0.60703906  0.57757171  0.23477001    -0.54300
C113        C  0.54460287  0.56830746  0.12517018     0.79500
O114        O  0.59521056  0.60543537  0.19896547    -0.56700
O115        O  0.60104024  0.56249908  0.12425576    -0.55100
O116        O  0.54884093  0.58233219  0.22929173    -0.55100
O117        O  0.54983842  0.55259672  0.14920147    -0.54300
O118        O  0.71134612  0.69485004  0.29751311    -0.55500
C119        C  0.72326063  0.65890211  0.41630179     0.77200
O120        O  0.67708255  0.70610423  0.41532814    -0.56600
C121        C  0.69509987  0.70678444  0.28681812     0.77100
C122        C  0.66378614  0.65116775  0.32932466     0.79500
Cd123      Cd  0.69354206  0.68167469  0.36220787     1.37500
O124        O  0.72901981  0.66449577  0.37932891    -0.55500
O125        O  0.68422990  0.64925112  0.32403581    -0.54300
C126        C  0.69398869  0.71802129  0.41715746     0.79500
O127        O  0.65708798  0.66614572  0.35377303    -0.56700
O128        O  0.70325682  0.66159074  0.42550504    -0.55100
O129        O  0.67860527  0.70635752  0.31072140    -0.55100
O130        O  0.70955748  0.71333190  0.39255385    -0.54300
O131        O  0.73075707  0.29810556  0.41303258    -0.55500
C132        C  0.74786576  0.32971321  0.29240452     0.77200
O133        O  0.69426103  0.29125533  0.29666087    -0.56600
C134        C  0.71299665  0.28889056  0.42344173     0.77100
C135        C  0.68761650  0.34917474  0.37372516     0.79500
Cd136      Cd  0.71481668  0.31352869  0.34762218     1.37500
O137        O  0.75286159  0.32317294  0.32933526    -0.55500
O138        O  0.70763477  0.34815408  0.38409606    -0.54300
C139        C  0.70840630  0.27591755  0.29647010     0.79500
O140        O  0.68076011  0.33453407  0.34899665    -0.56700
O141        O  0.72766034  0.33106337  0.28400694    -0.55100
O142        O  0.69662579  0.29226324  0.39987380    -0.55100
O143        O  0.72480164  0.27820580  0.32028098    -0.54300
O144        O  0.58163677  0.46043691  0.38210434    -0.55500
C145        C  0.60966311  0.47790521  0.50702880     0.77200
O146        O  0.56666463  0.42594582  0.49701742    -0.56600
C147        C  0.57229733  0.44281383  0.37165438     0.77100
C148        C  0.62766967  0.41443965  0.43734771     0.79500
Cd149      Cd  0.59294706  0.44510757  0.45213579     1.37500
O150        O  0.60575818  0.48225688  0.46848251    -0.55500
O151        O  0.62923933  0.43413479  0.42556837    -0.54300
C152        C  0.55279863  0.44149957  0.49695173     0.79500
O153        O  0.61096362  0.40957878  0.45889675    -0.56700
O154        O  0.60748370  0.45821111  0.51818411    -0.55100
O155        O  0.57374346  0.42717211  0.39747960    -0.55100
O156        O  0.55757722  0.45831788  0.47588853    -0.54300
O157        O  0.81532593  0.69287881  0.14118075    -0.55500
C158        C  0.79186537  0.65373232  0.03769533     0.77200
O159        O  0.84885116  0.68960469  0.02082952    -0.56600
C160        C  0.83295344  0.70344636  0.14576630     0.77100
C161        C  0.85622236  0.63891943  0.11472216     0.79500
Cd162      Cd  0.82880874  0.67237132  0.07980882     1.37500
O163        O  0.78953224  0.66318975  0.07292032    -0.55500
O164        O  0.83776421  0.64390599  0.13009045    -0.54300
C165        C  0.83506373  0.70518365  0.01762996     0.79500
O166        O  0.86155327  0.64856577  0.08084352    -0.56700
O167        O  0.81135464  0.65067950  0.02555872    -0.55100
O168        O  0.84840876  0.69866399  0.12101354    -0.55100
O169        O  0.81911971  0.70492127  0.04281199    -0.54300
O170        O  0.93279711  0.51059880  0.24568323    -0.55500
C171        C  0.97519592  0.55280520  0.17373051     0.77200
O172        O  0.92027082  0.58113206  0.23740961    -0.56600
C173        C  0.92273967  0.51381157  0.28012723     0.77100
C174        C  0.97601122  0.55377239  0.30314821     0.79500
Cd175      Cd  0.94409834  0.54876507  0.23883067     1.37500
O176        O  0.96471737  0.53511085  0.17798002    -0.55500
O177        O  0.97581428  0.53760709  0.27864227    -0.54300
C178        C  0.91310319  0.57755572  0.20053184     0.79500
O179        O  0.96091712  0.56794430  0.29805853    -0.56700
O180        O  0.97128654  0.56772222  0.20009879    -0.55100
O181        O  0.92001813  0.53344700  0.29104296    -0.55100
O182        O  0.91924325  0.56006500  0.18299046    -0.54300
O183        O  0.82060650  0.28487615  0.03596238    -0.55500
C184        C  0.80961723  0.32142006  0.15849617     0.77200
O185        O  0.85409796  0.27418594  0.15253925    -0.56600
C186        C  0.83660279  0.27207692  0.02804347     0.77100
C187        C  0.86633853  0.33102339  0.07265020     0.79500
Cd188      Cd  0.83744992  0.29899085  0.10090817     1.37500
O189        O  0.80250998  0.31601476  0.12225616    -0.55500
O190        O  0.84611983  0.33190225  0.06387325    -0.54300
C191        C  0.83691717  0.26265890  0.15460206     0.79500
O192        O  0.87302865  0.31560443  0.09639775    -0.56700
O193        O  0.82979493  0.31823046  0.16539648    -0.55100
O194        O  0.85290902  0.27304416  0.05253303    -0.55100
O195        O  0.82107892  0.26810802  0.13098620    -0.54300
O196        O  0.96926839  0.43864310  0.02032458    -0.55500
C197        C  0.93092272  0.44765408  0.40271557     0.77200
O198        O  0.97938143  0.40271504  0.40579235    -0.56600
C199        C  0.98131670  0.42238013  0.03042685     0.77100
C200        C  0.92382619  0.39101345  0.99074265     0.79500
Cd201      Cd  0.95508512  0.41986593  0.45754717     1.37500
O202        O  0.93667789  0.45409241  0.43912312    -0.55500
O203        O  0.92300722  0.41121052  0.99871414    -0.54300
C204        C  0.99196158  0.41908189  0.40344196     0.79500
O205        O  0.93859642  0.38428452  0.46479199    -0.56700
O206        O  0.93491664  0.42791393  0.39386776    -0.55100
O207        O  0.97953315  0.40542039  0.00827742    -0.55100
O208        O  0.98751213  0.43509961  0.42699299    -0.54300
O209        O  0.31843989  0.18825666  0.38000657    -0.55500
C210        C  0.29957652  0.15050417  0.26408311     0.77200
O211        O  0.35244712  0.18936878  0.26201184    -0.56600
C212        C  0.33676625  0.19727718  0.38704583     0.77100
C213        C  0.35603188  0.13334821  0.35324067     0.79500
Cd214      Cd  0.33223555  0.16900084  0.31676867     1.37500
O215        O  0.29455792  0.15786466  0.30030875    -0.55500
O216        O  0.33614166  0.13693055  0.36203169    -0.54300
C217        C  0.33792815  0.20430808  0.25822332     0.79500
O218        O  0.36465195  0.14522413  0.32499839    -0.56700
O219        O  0.31976112  0.14960678  0.25531533    -0.55100
O220        O  0.35227754  0.19226990  0.36255820    -0.55100
O221        O  0.32134294  0.20267932  0.28177789    -0.54300
O222        O  0.46542284  0.03330225  0.41149270    -0.55500
C223        C  0.42762653  0.01249109  0.52241311     0.77200
O224        O  0.46747267  0.06708674  0.52781940    -0.56600
C225        C  0.47538973  0.05110834  0.40492432     0.77100
C226        C  0.41120480  0.07261883  0.44364226     0.79500
Cd227      Cd  0.44662503  0.04672198  0.47465275     1.37500
O228        O  0.43539392  0.00868799  0.48598848    -0.55500
O229        O  0.41552705  0.05396112  0.42869747    -0.54300
C230        C  0.48158957  0.05189930  0.53270616     0.79500
O231        O  0.42252198  0.07853947  0.47511513    -0.56700
O232        O  0.42661055  0.03264720  0.03380119    -0.55100
O233        O  0.47113433  0.06663546  0.42972971    -0.55100
O234        O  0.47897068  0.03485125  0.51113667    -0.54300
O235        O  0.23915553  0.16345394  0.10120894    -0.55500
C236        C  0.20240008  0.20823338  0.01689482     0.77200
O237        O  0.16768190  0.16029744  0.09229446    -0.56600
C238        C  0.23390060  0.15587597  0.13713645     0.77100
C239        C  0.20210178  0.21564406  0.14499575     0.79500
Cd240      Cd  0.20236727  0.17977860  0.08799279     1.37500
O241        O  0.21820340  0.19491272  0.02303250    -0.55500
O242        O  0.21798775  0.21111064  0.12106813    -0.54300
C243        C  0.17102434  0.14913803  0.05930145     0.79500
O244        O  0.18549235  0.20340663  0.14225402    -0.56700
O245        O  0.18662857  0.20722961  0.04253321    -0.55100
O246        O  0.21389921  0.15727419  0.14680111    -0.55100
O247        O  0.18913085  0.15173715  0.04074413    -0.54300
O248        O  0.05998026  0.04044473  0.02474841    -0.55500
C249        C  0.10255836  0.03061617  0.41487782     0.77200
O250        O  0.05089045  0.07728610  0.41242059    -0.56600
C251        C  0.04689102  0.05620192  0.03230689     0.77100
C252        C  0.10669248  0.09014106  0.99433072     0.79500
Cd253      Cd  0.07621240  0.05973901  0.46297147     1.37500
O254        O  0.09616885  0.02526039  0.45157448    -0.55500
O255        O  0.10289218  0.07249491  0.01367046    -0.54300
C256        C  0.04008954  0.05992382  0.40663384     0.79500
O257        O  0.09614574  0.09411769  0.45985477    -0.56700
O258        O  0.09818442  0.04988067  0.40301055    -0.55100
O259        O  0.04883599  0.07311875  0.00973546    -0.55100
O260        O  0.04661224  0.04311056  0.42630877    -0.54300
O261        O  0.47094315  0.92822826  0.25352823    -0.55500
C262        C  0.43264664  0.94386851  0.14089482     0.77200
O263        O  0.47902491  0.89658757  0.13155394    -0.56600
C264        C  0.48447892  0.91272551  0.26034653     0.77100
C265        C  0.42510726  0.88230181  0.21801802     0.79500
Cd266      Cd  0.45663636  0.91212444  0.18845577     1.37500
O267        O  0.44075981  0.94854060  0.17660779    -0.55500
O268        O  0.42564294  0.90203816  0.22933828    -0.54300
C269        C  0.49200410  0.91268242  0.13104157     0.79500
O270        O  0.43922026  0.87615737  0.19112728    -0.56700
O271        O  0.43387711  0.92409703  0.12988415    -0.55100
O272        O  0.48389305  0.89685882  0.23508437    -0.55100
O273        O  0.48832241  0.92768336  0.15729491    -0.54300
O274        O  0.30294459  0.81826037  0.36341405    -0.55500
C275        C  0.33116027  0.76901076  0.27127123     0.77200
O276        O  0.37175260  0.81055571  0.32748783    -0.56600
C277        C  0.31106409  0.82344053  0.39897640     0.77100
C278        C  0.33341714  0.76080571  0.39785109     0.79500
Cd279      Cd  0.33507968  0.79689279  0.34173782     1.37500
O280        O  0.31507030  0.78137559  0.28097930    -0.55500
O281        O  0.31725998  0.76692567  0.37559556    -0.54300
C282        C  0.36499751  0.82576058  0.30325566     0.79500
O283        O  0.35099062  0.77162677  0.39391841    -0.56700
O284        O  0.34827761  0.77064157  0.29338264    -0.55100
O285        O  0.33083453  0.81797689  0.40552605    -0.55100
O286        O  0.34449769  0.82811853  0.29894475    -0.54300
O287        O  0.07755798  0.94765275  0.17914646    -0.55500
C288        C  0.11427394  0.96473605  0.29344318     0.77200
O289        O  0.07576926  0.91193541  0.29769306    -0.56600
C290        C  0.06757833  0.92998302  0.17148784     0.77100
C291        C  0.13015699  0.90652647  0.20549843     0.79500
Cd292      Cd  0.09586275  0.93193111  0.24215569     1.37500
O293        O  0.10679068  0.96926154  0.25697104    -0.55500
O294        O  0.12854232  0.92684142  0.19873626    -0.54300
C295        C  0.06020106  0.92585224  0.29942007     0.79500
O296        O  0.11715685  0.89839238  0.23235862    -0.56700
O297        O  0.11560104  0.94472592  0.30328616    -0.55100
O298        O  0.07180456  0.91399910  0.19549765    -0.55100
O299        O  0.06147504  0.94198340  0.27462060    -0.54300
O300        O  0.23125142  0.79776147  0.14705125    -0.55500
C301        C  0.25092864  0.83487941  0.03199650     0.77200
O302        O  0.19781941  0.79697642  0.02751353    -0.56600
C303        C  0.21315403  0.78826840  0.15377522     0.77100
C304        C  0.18932871  0.85104403  0.11270952     0.79500
Cd305      Cd  0.21723956  0.81679857  0.08312039     1.37500
O306        O  0.25536941  0.82829829  0.06918328    -0.55500
O307        O  0.20927192  0.84993543  0.12359399    -0.54300
C308        C  0.21173887  0.78144405  0.02640327     0.79500
O309        O  0.18294191  0.83748331  0.08535652    -0.56700
O310        O  0.23090662  0.83534711  0.02181755    -0.55100
O311        O  0.19754863  0.79319533  0.12927416    -0.55100
O312        O  0.22779152  0.78260022  0.05144231    -0.54300
O313        O  0.71965873  0.19461738  0.16439148    -0.55500
C314        C  0.72835286  0.15935679  0.03915467     0.77200
O315        O  0.66574199  0.16699673  0.09994432    -0.56600
C316        C  0.70372449  0.20721207  0.17382089     0.77100
C317        C  0.70435641  0.22057724  0.04700205     0.79500
Cd318      Cd  0.70217698  0.18276200  0.09813527     1.37500
O319        O  0.73620487  0.16407417  0.07518527    -0.55500
O320        O  0.72048051  0.21333616  0.06803936    -0.54300
C321        C  0.67144943  0.15149937  0.12445851     0.79500
O322        O  0.68642069  0.21034450  0.05036878    -0.56700
O323        O  0.70825656  0.16355806  0.03337648    -0.55100
O324        O  0.68745803  0.20723397  0.14913467    -0.55100
O325        O  0.69141949  0.15036765  0.13511974    -0.54300
O326        O  0.59765316  0.02467716  0.23471198    -0.55500
C327        C  0.55240274  0.05778063  0.15171560     0.77200
O328        O  0.55606590  0.07665169  0.27883400    -0.56600
C329        C  0.60417998  0.02888087  0.27181797     0.77100
C330        C  0.61072592  0.09046417  0.19487002     0.79500
Cd331      Cd  0.57966001  0.06006972  0.22404520     1.37500
O332        O  0.56464828  0.04173901  0.16190072    -0.55500
O333        O  0.61191345  0.07045434  0.18555518    -0.54300
C334        C  0.54406895  0.05987862  0.28153739     0.79500
O335        O  0.59547435  0.09636087  0.21950968    -0.56700
O336        O  0.55409194  0.07481569  0.17365310    -0.55100
O337        O  0.60103487  0.04817815  0.28462211    -0.55100
O338        O  0.54870093  0.04420152  0.25738925    -0.54300
O339        O  0.72094850  0.79534952  0.54945234    -0.55500
C340        C  0.73815346  0.83077830  0.16747123     0.77200
O341        O  0.67141106  0.83404782  0.10976803    -0.56600
C342        C  0.70282147  0.78673323  0.53933590     0.77100
C343        C  0.69967796  0.77532810  0.16358899     0.79500
Cd344      Cd  0.70548926  0.81307327  0.11302319     1.37500
O345        O  0.74276617  0.82595316  0.12952733    -0.55500
O346        O  0.71597270  0.77777232  0.13963780    -0.54300
C347        C  0.67844338  0.84777058  0.08308415     0.79500
O348        O  0.68556393  0.79071478  0.16410987    -0.56700
O349        O  0.71827345  0.82920891  0.17801582    -0.55100
O350        O  0.68639017  0.79194285  0.06180648    -0.55100
O351        O  0.69854855  0.84660785  0.07368269    -0.54300
O352        O  0.56921593  0.94127199  0.00036721    -0.55500
C353        C  0.60958729  0.95994821  0.38967757     0.77200
O354        O  0.61196592  0.89433177  0.45083555    -0.56600
C355        C  0.55991188  0.92308396  0.00693933     0.77100
C356        C  0.55517600  0.92007376  0.38050566     0.79500
Cd357      Cd  0.58982252  0.92685528  0.43884002     1.37500
O358        O  0.60103795  0.96435971  0.42517891    -0.55500
O359        O  0.55626825  0.93651756  0.40428319    -0.54300
C360        C  0.62299466  0.90263043  0.48061341     0.79500
O361        O  0.57091357  0.90635470  0.38295133    -0.56700
O362        O  0.61089678  0.93999204  0.37975171    -0.55100
O363        O  0.56515895  0.90748928  0.98303187    -0.55100
O364        O  0.62021276  0.92275471  0.48778627    -0.54300
O365        O  0.94090909  0.95517431  0.00732076    -0.55500
C366        C  0.99118215  0.92245889  0.42424917     0.77200
O367        O  0.98554583  0.90565561  0.04802498    -0.56600
C368        C  0.93379679  0.94872079  0.04289054     0.77100
C369        C  0.93240352  0.89059885  0.45611598     0.79500
Cd370      Cd  0.96142944  0.92112998  0.49329228     1.37500
O371        O  0.97779417  0.93821407  0.43008934    -0.55500
O372        O  0.93428814  0.91009267  0.44348260    -0.54300
C373        C  0.99697455  0.92284088  0.05098998     0.79500
O374        O  0.94354976  0.88503099  0.48840861    -0.56700
O375        O  0.98993716  0.90652592  0.44958959    -0.55100
O376        O  0.93781172  0.92905704  0.05270166    -0.55100
O377        O  0.99136143  0.93877899  0.02777559    -0.54300
O378        O  0.80466362  0.82092039  0.32268084    -0.55500
C379        C  0.84125649  0.77494117  0.39543794     0.77200
O380        O  0.85796864  0.78566380  0.26919510    -0.56600
C381        C  0.80791730  0.82976306  0.28701548     0.77100
C382        C  0.87291653  0.83471033  0.36720212     0.79500
Cd383      Cd  0.84210748  0.80618455  0.32938560     1.37500
O384        O  0.82607758  0.78909562  0.39101950    -0.55500
O385        O  0.85484711  0.83020408  0.38427059    -0.54300
C386        C  0.84185055  0.77268607  0.26777631     0.79500
O387        O  0.87652445  0.82689650  0.33082728    -0.56700
O388        O  0.85710687  0.77598851  0.36990874    -0.55100
O389        O  0.82757697  0.83040649  0.27475298    -0.55100
O390        O  0.82708851  0.77548172  0.29498456    -0.54300
O391        O  0.93032606  0.01001431  0.20219322    -0.55500
C392        C  0.97060909  0.05221864  0.28424576     0.77200
O393        O  0.96307589  0.06668697  0.15873334    -0.56600
C394        C  0.92315930  0.01389717  0.16519133     0.77100
C395        C  0.90683826  0.07348043  0.24102414     0.79500
Cd396      Cd  0.94252296  0.04760504  0.21321521     1.37500
O397        O  0.96125270  0.03415939  0.27713585    -0.55500
O398        O  0.91121224  0.05495504  0.25687823    -0.54300
C399        C  0.97743026  0.05165410  0.15518962     0.79500
O400        O  0.91856196  0.07969746  0.21032075    -0.56700
O401        O  0.96596433  0.06780617  0.25947043    -0.55100
O402        O  0.92292927  0.03362725  0.15341079    -0.55100
O403        O  0.97542376  0.03524475  0.17908098    -0.54300
O404        O  0.78235069  0.15916798  0.36627137    -0.55500
C405        C  0.82589689  0.19523646  0.27908648     0.77200
O406        O  0.84212688  0.18727795  0.40329028    -0.56600
C407        C  0.78726756  0.15077859  0.40185140     0.77100
C408        C  0.84564490  0.13302901  0.31616018     0.79500
Cd409      Cd  0.82082902  0.16795360  0.34974657     1.37500
O410        O  0.80750280  0.18638400  0.28629000    -0.55500
O411        O  0.82750240  0.13874658  0.30002832    -0.54300
C412        C  0.82913487  0.20359424  0.40436006     0.79500
O413        O  0.85161847  0.14258155  0.34961510    -0.56700
O414        O  0.84142690  0.19054762  0.30402404    -0.55100
O415        O  0.80741941  0.14810184  0.40948450    -0.55100
O416        O  0.81279590  0.20304425  0.37991270    -0.54300
C417        C  0.88396627  0.08536552  0.30178290     0.25900
C418        C  0.88951428  0.08745756  0.25891342    -0.22200
C419        C  0.87936862  0.10384403  0.23445628     0.20800
C420        C  0.86441108  0.11825230  0.25289981     0.25900
C421        C  0.85958461  0.11657522  0.29604572    -0.22100
C422        C  0.86926309  0.09995301  0.32022290     0.20800
F423        F  0.86456544  0.09794919  0.36182717    -0.12100
F424        F  0.89354659  0.06985333  0.32645833    -0.14400
F425        F  0.85556671  0.13458344  0.22917515    -0.14400
F426        F  0.88407773  0.10606529  0.19288118    -0.12100
C427        C  0.92299629  0.95820444  0.11669665     0.25900
C428        C  0.92342341  0.96379847  0.07353169    -0.22200
C429        C  0.91745041  0.98512448  0.06159316     0.20800
C430        C  0.91438608  0.00119183  0.09220451     0.25900
C431        C  0.91778905  0.99626660  0.13522173    -0.22100
C432        C  0.92042171  0.97434021  0.14725443     0.20800
F433        F  0.92244381  0.96867828  0.18849025    -0.12100
F434        F  0.92721272  0.93749034  0.12974924    -0.14400
F435        F  0.91001914  0.02191385  0.07930705    -0.14400
F436        F  0.91605526  0.99082775  0.02029465    -0.12100
C437        C  0.91291144  0.87942946  0.39057436     0.25900
C438        C  0.91799162  0.87540034  0.43330296    -0.22200
C439        C  0.90878970  0.85722526  0.45349453     0.20800
C440        C  0.89412200  0.84393531  0.43177889     0.25900
C441        C  0.88893199  0.84824916  0.38932978    -0.22100
C442        C  0.89862627  0.86589507  0.36878657     0.20800
F443        F  0.89355489  0.87058069  0.32806588    -0.12100
F444        F  0.92187079  0.89647521  0.36963483    -0.14400
F445        F  0.88509584  0.82670508  0.45207018    -0.14400
F446        F  0.91348242  0.85231243  0.99431110    -0.12100
C447        C  0.77662638  0.84113802  0.18648393     0.25900
C448        C  0.75519851  0.83625134  0.19903492    -0.22200
C449        C  0.75081475  0.83390478  0.24243088     0.20800
C450        C  0.76781882  0.83403520  0.27195820     0.25900
C451        C  0.78960172  0.83655808  0.25885297    -0.22100
C452        C  0.79362722  0.84147687  0.21610092     0.20800
F453        F  0.81426304  0.84500826  0.20218685    -0.12100
F454        F  0.78139567  0.84446857  0.14522601    -0.14400
F455        F  0.76302550  0.83009125  0.31301749    -0.14400
F456        F  0.73031091  0.82962704  0.25626623    -0.12100
C457        C  0.62958127  0.86934789  0.02336642     0.25900
C458        C  0.63729649  0.88916479  0.50759082    -0.22200
C459        C  0.65787562  0.89654820  0.52063066     0.20800
C460        C  0.67119255  0.88333484  0.54628456     0.25900
C461        C  0.66364897  0.86322337  0.06125539    -0.22100
C462        C  0.64250306  0.85653945  0.05016473     0.20800
F463        F  0.63470311  0.83706937  0.06354057    -0.12100
F464        F  0.60933103  0.86233933  0.01271654    -0.14400
F465        F  0.69146288  0.89029655  0.55684087    -0.14400
F466        F  0.66532051  0.91620337  0.50750355    -0.12100
C467        C  0.61551778  0.97289123  0.31587989     0.25900
C468        C  0.61556544  0.97728780  0.35940993    -0.22200
C469        C  0.61740331  0.99898042  0.37275791     0.20800
C470        C  0.61616407  0.01605343  0.34349472     0.25900
C471        C  0.61290552  0.01166621  0.30035707    -0.22100
C472        C  0.61420696  0.98993499  0.28663596     0.20800
F473        F  0.61231999  0.98498860  0.24515266    -0.12100
F474        F  0.61444398  0.95213054  0.30149059    -0.14400
F475        F  0.61634670  0.03682648  0.35798140    -0.14400
F476        F  0.61890817  0.00375509  0.41437728    -0.12100
C477        C  0.74852354  0.15111927  0.42778340     0.25900
C478        C  0.77077058  0.14655856  0.43506251    -0.22200
C479        C  0.77767613  0.14186017  0.47663967     0.20800
C480        C  0.76375676  0.14427785  0.01092175     0.25900
C481        C  0.74167897  0.15145294  0.50354949    -0.22100
C482        C  0.73412209  0.15350008  0.46163277     0.20800
F483        F  0.71318939  0.15968033  0.45319754    -0.12100
F484        F  0.74092375  0.15485423  0.38815858    -0.14400
F485        F  0.77145445  0.14110794  0.05064262    -0.14400
F486        F  0.79880193  0.13640948  0.48511827    -0.12100
C487        C  0.61915081  0.12717110  0.16563556     0.25900
C488        C  0.62621500  0.10610728  0.17703069    -0.22200
C489        C  0.64799273  0.09980251  0.16963993     0.20800
C490        C  0.66267286  0.11456352  0.15228623     0.25900
C491        C  0.65564723  0.13566493  0.14082978    -0.22100
C492        C  0.63370256  0.14178207  0.14724142     0.20800
F493        F  0.62647147  0.16210200  0.13690273    -0.12100
F494        F  0.59802023  0.13342732  0.17134630    -0.14400
F495        F  0.68373835  0.10812771  0.14637554    -0.14400
F496        F  0.65520583  0.07947749  0.18004279    -0.12100
C497        C  0.04176824  0.90777069  0.36082278     0.25900
C498        C  0.04162238  0.92391320  0.32928748    -0.22200
C499        C  0.02388747  0.93883051  0.32766950     0.20800
C500        C  0.00728078  0.93815723  0.35792237     0.25900
C501        C  0.00791760  0.92253002  0.39041410    -0.22100
C502        C  0.02518736  0.90709847  0.39101306     0.20800
F503        F  0.02652912  0.89162050  0.42163657    -0.12100
F504        F  0.05827238  0.89287047  0.36329786    -0.14400
F505        F  0.99061352  0.95288041  0.35534399    -0.14400
F506        F  0.02256454  0.95426175  0.29695121    -0.12100
C507        C  0.03974589  0.90808187  0.13294377     0.25900
C508        C  0.05102696  0.92786571  0.13768959    -0.22200
C509        C  0.04519034  0.94565562  0.11185918     0.20800
C510        C  0.02778616  0.94400665  0.08340382     0.25900
C511        C  0.01594686  0.92443367  0.07994635    -0.22100
C512        C  0.02245814  0.90641788  0.10452313     0.20800
F513        F  0.01195776  0.88710408  0.10161571    -0.12100
F514        F  0.04505776  0.89024483  0.15643748    -0.14400
F515        F  0.02239654  0.96177472  0.05979357    -0.14400
F516        F  0.05603238  0.96480129  0.11451156    -0.12100
C517        C  0.18065340  0.88696201  0.14687504     0.25900
C518        C  0.17391432  0.86630835  0.13320959    -0.22200
C519        C  0.15266878  0.85934212  0.14275866     0.20800
C520        C  0.13875809  0.87231041  0.16706509     0.25900
C521        C  0.14555453  0.89277504  0.18139223    -0.22100
C522        C  0.16641269  0.90028176  0.17015480     0.20800
F523        F  0.17319306  0.92024783  0.18256757    -0.12100
F524        F  0.20093233  0.89429083  0.13742161    -0.14400
F525        F  0.11837015  0.86503668  0.17580213    -0.14400
F526        F  0.14561653  0.83952802  0.12999991    -0.12100
C527        C  0.28982772  0.83544665  0.50811117     0.25900
C528        C  0.26803358  0.83939870  0.00000090    -0.22200
C529        C  0.26133754  0.84371435  0.45726177     0.20800
C530        C  0.27614618  0.84052522  0.42434836     0.25900
C531        C  0.29760787  0.83341359  0.43281560    -0.22100
C532        C  0.30474052  0.83255626  0.47512801     0.20800
F533        F  0.32569249  0.82699233  0.48487256    -0.12100
F534        F  0.29719006  0.83182090  0.04894840    -0.14400
F535        F  0.26897449  0.84292485  0.38407590    -0.14400
F536        F  0.24037317  0.84913062  0.44735730    -0.12100
C537        C  0.52468394  0.93230907  0.10302907     0.25900
C538        C  0.51032488  0.91446438  0.10098620    -0.22200
C539        C  0.51319908  0.89899775  0.06897438     0.20800
C540        C  0.52951117  0.90169248  0.03883804     0.25900
C541        C  0.54337448  0.91991317  0.04010040    -0.22100
C542        C  0.54098652  0.93500082  0.07284420     0.20800
F543        F  0.55390934  0.95276398  0.57397392    -0.12100
F544        F  0.52296438  0.94736531  0.13407575    -0.14400
F545        F  0.53124050  0.88667769  0.00770674    -0.14400
F546        F  0.49996462  0.88143732  0.06612116    -0.12100
C547        C  0.52002634  0.93378579  0.34864321     0.25900
C548        C  0.53630350  0.91737662  0.35165459    -0.22200
C549        C  0.53417948  0.89855024  0.32700727     0.20800
C550        C  0.51670131  0.89654364  0.29889580     0.25900
C551        C  0.50102648  0.91343648  0.29446416    -0.22100
C552        C  0.50258826  0.93178492  0.32054027     0.20800
F553        F  0.48753245  0.94815508  0.31829784    -0.12100
F554        F  0.52110864  0.95215286  0.37219488    -0.14400
F555        F  0.51549005  0.87816759  0.27539322    -0.14400
F556        F  0.54915186  0.88211997  0.32953935    -0.12100
C557        C  0.41316039  0.84481278  0.23897050     0.25900
C558        C  0.40901513  0.86737465  0.23664162    -0.22200
C559        C  0.38991933  0.87593646  0.25520181     0.20800
C560        C  0.37557985  0.86233798  0.27666706     0.25900
C561        C  0.38017475  0.83998333  0.28048365    -0.22100
C562        C  0.39889145  0.83123924  0.26102666     0.20800
F563        F  0.40311982  0.80949521  0.26269392    -0.12100
F564        F  0.43131806  0.83597356  0.22111679    -0.14400
F565        F  0.35751995  0.87116903  0.29489032    -0.14400
F566        F  0.38510521  0.89755531  0.25272300    -0.12100
C567        C  0.99157391  0.03783333  0.34663314     0.25900
C568        C  0.98680697  0.05500441  0.31854746    -0.22200
C569        C  0.99864655  0.07455455  0.32202518     0.20800
C570        C  0.01555569  0.07642393  0.35139460     0.25900
C571        C  0.02099280  0.05885667  0.37804802    -0.22100
C572        C  0.00836575  0.03976843  0.37617975     0.20800
F573        F  0.01234536  0.02272293  0.40263144    -0.12100
F574        F  0.98028506  0.01892003  0.34516232    -0.14400
F575        F  0.02697569  0.09526424  0.35276708    -0.14400
F576        F  0.99441302  0.09177258  0.29615934    -0.12100
C577        C  0.01344327  0.07156122  0.06670083     0.25900
C578        C  0.02965145  0.05509041  0.06481998    -0.22200
C579        C  0.02854456  0.03742533  0.09304908     0.20800
C580        C  0.01165788  0.03631574  0.12256214     0.25900
C581        C  0.99555190  0.05292173  0.12454111    -0.22100
C582        C  0.99669624  0.07052025  0.09625526     0.20800
F583        F  0.98137669  0.08667425  0.09649854    -0.12100
F584        F  0.01334862  0.08858517  0.03922527    -0.14400
F585        F  0.01109668  0.01884635  0.14894224    -0.14400
F586        F  0.04370791  0.02112878  0.09210428    -0.12100
C587        C  0.11938538  0.97676223  0.36804533     0.25900
C588        C  0.11880240  0.98194910  0.32471266    -0.22200
C589        C  0.11819061  0.00398490  0.31253472     0.20800
C590        C  0.11524798  0.02026062  0.34264360     0.25900
C591        C  0.11266071  0.01475547  0.38554142    -0.22100
C592        C  0.11626826  0.99303097  0.39816465     0.20800
F593        F  0.11500744  0.98718068  0.43938190    -0.12100
F594        F  0.12076337  0.95574343  0.38139823    -0.14400
F595        F  0.11299912  0.04118332  0.32909690    -0.14400
F596        F  0.11866739  0.00974169  0.27119487    -0.12100
C597        C  0.14066288  0.12280148  0.07032379     0.25900
C598        C  0.15452475  0.13406475  0.04274878    -0.22200
C599        C  0.15230833  0.13104278  0.99902230     0.20800
C600        C  0.13633327  0.11716409  0.98316730     0.25900
C601        C  0.12272858  0.10565603  0.01079586    -0.22100
C602        C  0.12506426  0.10850915  0.05449357     0.20800
F603        F  0.11197529  0.09772751  0.08189245    -0.12100
F604        F  0.14255800  0.12522438  0.11265665    -0.14400
F605        F  0.13475057  0.11468338  0.44082756    -0.14400
F606        F  0.16548766  0.14190040  0.47190557    -0.12100
C607        C  0.50054817  0.03523638  0.35097326     0.25900
C608        C  0.49177833  0.05365748  0.37109387    -0.22200
C609        C  0.49985465  0.07443053  0.36039820     0.20800
C610        C  0.51671520  0.07659365  0.33101945     0.25900
C611        C  0.52575533  0.05807428  0.31161650    -0.22100
C612        C  0.51725310  0.03740777  0.32151622     0.20800
F613        F  0.52554585  0.01903814  0.30372027    -0.12100
F614        F  0.49356567  0.01491951  0.36083384    -0.14400
F615        F  0.52405312  0.09682429  0.32143476    -0.14400
F616        F  0.49153091  0.09273129  0.37840866    -0.12100
C617        C  0.52529038  0.07563028  0.10305713     0.25900
C618        C  0.53598804  0.05657458  0.11764537    -0.22200
C619        C  0.52923577  0.03626405  0.10244868     0.20800
C620        C  0.51164178  0.03494533  0.07459006     0.25900
C621        C  0.50039796  0.05392863  0.06125213    -0.22100
C622        C  0.50762326  0.07430281  0.07526686     0.20800
F623        F  0.49769527  0.09299515  0.06197470    -0.12100
F624        F  0.53175878  0.09562701  0.11594611    -0.14400
F625        F  0.50528849  0.01465779  0.56264480    -0.14400
F626        F  0.53898603  0.01751153  0.11591691    -0.12100
C627        C  0.42073919  0.99954546  0.09580444     0.25900
C628        C  0.42185686  0.99518246  0.05226524    -0.22200
C629        C  0.42120544  0.97341591  0.03882597     0.20800
C630        C  0.42221422  0.95639776  0.06825480     0.25900
C631        C  0.42426404  0.96089667  0.11162834    -0.22100
C632        C  0.42203452  0.98256117  0.12516209     0.20800
F633        F  0.42269748  0.98751593  0.16678139    -0.12100
F634        F  0.42045629  0.02031895  0.11031841    -0.14400
F635        F  0.42313807  0.93561830  0.05384765    -0.14400
F636        F  0.42106773  0.96811785  0.49723142    -0.12100
C637        C  0.28857782  0.14440188  0.18885646     0.25900
C638        C  0.28278817  0.14531244  0.23185705    -0.22200
C639        C  0.26053309  0.14477711  0.24255997     0.20800
C640        C  0.24447144  0.14587222  0.21117019     0.25900
C641        C  0.25033375  0.14792358  0.16833670    -0.22100
C642        C  0.27251224  0.14586147  0.15744867     0.20800
F643        F  0.27884076  0.14665263  0.11651180    -0.12100
F644        F  0.30987224  0.14397018  0.17692426    -0.14400
F645        F  0.22320781  0.14675497  0.22323146    -0.14400
F646        F  0.25420943  0.14459242  0.28352690    -0.12100
C647        C  0.36949008  0.09521271  0.36573852     0.25900
C648        C  0.36890424  0.11722168  0.37724702    -0.22200
C649        C  0.38031392  0.12398982  0.41312623     0.20800
C650        C  0.39304380  0.10918499  0.43626434     0.25900
C651        C  0.39479083  0.08728357  0.42357013    -0.22100
C652        C  0.38232997  0.08029363  0.38871882     0.20800
F653        F  0.38285089  0.05915203  0.37630129    -0.12100
F654        F  0.35798151  0.08826726  0.33184320    -0.14400
F655        F  0.40418717  0.11654219  0.47029738    -0.14400
F656        F  0.37936452  0.14512959  0.42544101    -0.12100
C657        C  0.85161770  0.23876464  0.49181302     0.25900
C658        C  0.83613766  0.25601094  0.99330543    -0.22200
C659        C  0.81923326  0.25648118  0.46312083     0.20800
C660        C  0.81748828  0.23995220  0.43320430     0.29100
C661        C  0.83235311  0.22220801  0.43321317    -0.22100
C662        C  0.84970633  0.22208891  0.46227579     0.20800
F663        F  0.86457630  0.20551522  0.46305055    -0.12100
F664        F  0.86837532  0.23759685  0.51987541    -0.14400
F665        F  0.80090459  0.24122591  0.40477390    -0.14400
F666        F  0.80408238  0.27277379  0.96310383    -0.12100
C667        C  0.85274485  0.23639911  0.20729262     0.25900
C668        C  0.83477195  0.24408630  0.18380645    -0.22200
C669        C  0.81417537  0.23445391  0.18982227     0.20800
C670        C  0.81139171  0.21826180  0.22009183     0.25900
C671        C  0.82920240  0.21092930  0.24439668    -0.22100
C672        C  0.85004543  0.21984237  0.23702724     0.20800
F673        F  0.86784582  0.21296593  0.25920437    -0.12100
F674        F  0.87289830  0.24507374  0.20207292    -0.14400
F675        F  0.79101088  0.21039510  0.22651700    -0.14400
F676        F  0.79636018  0.24117390  0.16751461    -0.12100
C677        C  0.87485187  0.36849248  0.04791203     0.25900
C678        C  0.88144474  0.34675631  0.05431470    -0.22200
C679        C  0.90196397  0.33967480  0.03994496     0.20800
C680        C  0.91558326  0.35402128  0.01859209     0.25900
C681        C  0.90895621  0.37573842  0.01163693    -0.22100
C682        C  0.88856057  0.38294311  0.02690761     0.20800
F683        F  0.88168949  0.40383346  0.02085215    -0.12100
F684        F  0.85522040  0.37576555  0.06232847    -0.14400
F685        F  0.93542392  0.34672814  0.00539876    -0.14400
F686        F  0.90848942  0.31861976  0.04512137    -0.12100
C687        C  0.92083780  0.47398273  0.29698508     0.25900
C688        C  0.91706844  0.49571084  0.30900658    -0.22200
C689        C  0.91257032  0.50018229  0.35169926     0.20800
C690        C  0.91513477  0.48392301  0.38227801     0.25900
C691        C  0.92182968  0.46284561  0.37072284    -0.22100
C692        C  0.92307520  0.45764106  0.32756053     0.20800
F693        F  0.92855196  0.43721376  0.31485824    -0.12100
F694        F  0.92423229  0.46879600  0.25597171    -0.14400
F695        F  0.91262350  0.48926194  0.42345603    -0.14400
F696        F  0.90783544  0.52073801  0.36466116    -0.12100
C697        C  0.82052000  0.74265069  0.23451430     0.25900
C698        C  0.83983286  0.75503343  0.23638847    -0.22200
C699        C  0.85684277  0.75024737  0.20819025     0.20800
C700        C  0.85473244  0.73331123  0.17920036     0.25900
C701        C  0.83545362  0.72086097  0.17753908    -0.22100
C702        C  0.81838264  0.72581446  0.20549442     0.20800
F703        F  0.79943809  0.71448465  0.20477191    -0.12100
F704        F  0.80340145  0.74689164  0.26047281    -0.14400
F705        F  0.87158870  0.72933385  0.15249126    -0.14400
F706        F  0.87556688  0.76193122  0.20848834    -0.12100
C707        C  0.85708713  0.72716528  0.46597445     0.25900
C708        C  0.83703585  0.72298893  0.98644258    -0.22200
C709        C  0.81878698  0.73643289  0.97748494     0.20800
C710        C  0.82041436  0.75341801  0.44845721     0.25900
C711        C  0.84022746  0.75760431  0.42783687    -0.22100
C712        C  0.85863199  0.74437572  0.43708790     0.20800
F713        F  0.87820319  0.74811647  0.41846213    -0.12100
F714        F  0.87517369  0.71492091  0.47456222    -0.14400
F715        F  0.80217624  0.76545078  0.43995329    -0.14400
F716        F  0.79918303  0.73296513  0.99620755    -0.12100
C717        C  0.88791810  0.61249642  0.11444474     0.25900
C718        C  0.87086222  0.62305120  0.13622855    -0.22200
C719        C  0.86817107  0.61876053  0.17957870     0.20800
C720        C  0.88196573  0.60401151  0.20048918     0.25900
C721        C  0.89860173  0.59314341  0.17852748    -0.22100
C722        C  0.90157002  0.59753725  0.13539034     0.20800
F723        F  0.91811004  0.58781057  0.11380229    -0.12100
F724        F  0.89133012  0.61650377  0.07288526    -0.14400
F725        F  0.87876708  0.60000686  0.24210548    -0.14400
F726        F  0.85248492  0.62922724  0.20215534    -0.12100
C727        C  0.68828277  0.25237644  0.50634230     0.25900
C728        C  0.70654488  0.23998559  0.51912624    -0.22200
C729        C  0.72736934  0.24548362  0.50365808     0.20800
C730        C  0.72968506  0.26223641  0.47414993     0.25900
C731        C  0.71126749  0.27390475  0.45973899    -0.22100
C732        C  0.69060769  0.26917805  0.47691940     0.20800
F733        F  0.67251038  0.28051872  0.46457012    -0.12100
F734        F  0.66812866  0.24815694  0.52204666    -0.14400
F735        F  0.74975884  0.26598199  0.45763470    -0.14400
F736        F  0.74571722  0.23358437  0.01509676    -0.12100
C737        C  0.72370019  0.22619051  0.23201295     0.25900
C738        C  0.70413869  0.22225866  0.21018838    -0.22200
C739        C  0.68534442  0.23462399  0.22054824     0.20800
C740        C  0.68652970  0.25161087  0.24956322     0.25900
C741        C  0.70646122  0.25652383  0.26918113    -0.22100
C742        C  0.72485544  0.24312557  0.26120517     0.20800
F743        F  0.74436134  0.24697093  0.28011303    -0.12100
F744        F  0.74204540  0.21437203  0.22374276    -0.14400
F745        F  0.66818499  0.26342200  0.25795117    -0.14400
F746        F  0.66579988  0.23073002  0.20181127    -0.12100
C747        C  0.75793733  0.33670666  0.21693246     0.25900
C748        C  0.76453545  0.33351745  0.25920222    -0.22200
C749        C  0.78693013  0.33055438  0.26783917     0.20800
C750        C  0.80199312  0.32862413  0.23490780     0.25900
C751        C  0.79492187  0.32924997  0.19252895    -0.22100
C752        C  0.77294637  0.33445443  0.18402377     0.20800
F753        F  0.76564238  0.33623128  0.14372439    -0.12100
F754        F  0.73664084  0.34045117  0.20696520    -0.14400
F755        F  0.82324193  0.32448219  0.24476911    -0.14400
F756        F  0.79418660  0.32807041  0.30805188    -0.12100
C757        C  0.68029100  0.38689040  0.40159178     0.25900
C758        C  0.67270851  0.36605204  0.39083337    -0.22200
C759        C  0.65065356  0.36103174  0.39793367     0.20800
C760        C  0.63637854  0.37654422  0.41484013     0.25900
C761        C  0.64368920  0.39761870  0.42420411    -0.22100
C762        C  0.66580953  0.40266382  0.41757810     0.20800
F763        F  0.67343023  0.42278715  0.42682011    -0.12100
F764        F  0.70155602  0.39217889  0.39560327    -0.14400
F765        F  0.61510685  0.37115788  0.42042312    -0.14400
F766        F  0.64290438  0.34090556  0.38910983    -0.12100
C767        C  0.67649171  0.73333921  0.23802171     0.25900
C768        C  0.69546648  0.72152763  0.24982591    -0.22200
C769        C  0.71513548  0.72567044  0.22863683     0.20800
C770        C  0.71633464  0.74270949  0.19945479     0.25900
C771        C  0.69776279  0.75570299  0.19036512    -0.22100
C772        C  0.67765147  0.75021636  0.20851138     0.20800
F773        F  0.65912214  0.76141559  0.19827109    -0.12100
F774        F  0.65683402  0.72904778  0.25584658    -0.14400
F775        F  0.73602724  0.74717037  0.18194940    -0.14400
F776        F  0.73354332  0.71399881  0.23760506    -0.12100
C777        C  0.67752945  0.74740927  0.46191797     0.25900
C778        C  0.69605844  0.73631701  0.44686400    -0.22200
C779        C  0.71692286  0.74275779  0.46063132     0.20800
C780        C  0.71921199  0.75983226  0.48915507     0.25900
C781        C  0.70067623  0.77072203  0.50488963    -0.22100
C782        C  0.67979154  0.76447170  0.49057063     0.20800
F783        F  0.66143319  0.77468924  0.50459847    -0.12100
F784        F  0.65721190  0.74182696  0.44880185    -0.14400
F785        F  0.73955630  0.76495456  0.50281901    -0.14400
F786        F  0.73517299  0.73185535  0.44802004    -0.12100
C787        C  0.76030808  0.64436042  0.43683886     0.25900
C788        C  0.73933788  0.65159042  0.44858594    -0.22200
C789        C  0.73491303  0.65488781  0.49167235     0.20800
C790        C  0.75167842  0.65335868  0.52166721     0.25900
C791        C  0.77305362  0.64871241  0.00968729    -0.22100
C792        C  0.77699626  0.64251402  0.46690793     0.20800
F793        F  0.79726180  0.63649131  0.45373806    -0.12100
F794        F  0.76502729  0.64023471  0.39587207    -0.14400
F795        F  0.74687633  0.65872369  0.06275716    -0.14400
F796        F  0.71480235  0.66161268  0.50454809    -0.12100
C797        C  0.61727691  0.50533719  0.11276318     0.25900
C798        C  0.61360381  0.52725358  0.10169652    -0.22200
C799        C  0.61391382  0.53309282  0.05866064     0.20800
C800        C  0.61438849  0.51698721  0.02755887     0.25900
C801        C  0.61491424  0.49478394  0.03889319    -0.22100
C802        C  0.61764374  0.48923095  0.08180014     0.20800
F803        F  0.61901268  0.46809271  0.09438692    -0.12100
F804        F  0.61894826  0.49924535  0.15382796    -0.14400
F805        F  0.61257392  0.52316791  0.98656826    -0.14400
F806        F  0.61191868  0.55425108  0.04642593    -0.12100
C807        C  0.64067408  0.60257022  0.27333688     0.25900
C808        C  0.62236888  0.61181690  0.25272400    -0.22200
C809        C  0.61751593  0.63404972  0.25857577     0.20800
C810        C  0.63046590  0.64663828  0.28524839     0.25900
C811        C  0.64866726  0.63730161  0.30579932    -0.22100
C812        C  0.65377831  0.61525262  0.29934773     0.20800
F813        F  0.67147165  0.60595747  0.31838709    -0.12100
F814        F  0.64619132  0.58130065  0.26770934    -0.14400
F815        F  0.62580571  0.66819171  0.28951404    -0.14400
F816        F  0.60011996  0.64356610  0.23895596    -0.12100
C817        C  0.18694248  0.73946412  0.45405807     0.25900
C818        C  0.20562985  0.72780566  0.44055459    -0.22200
C819        C  0.22620769  0.73324077  0.95729191     0.20800
C820        C  0.22814716  0.75058365  0.98542048     0.25900
C821        C  0.20958903  0.76280925  0.99747414    -0.22100
C822        C  0.18885592  0.75680466  0.48209579     0.20800
F823        F  0.17050473  0.76765442  0.49429895    -0.12100
F824        F  0.16670880  0.73429059  0.43984415    -0.14400
F825        F  0.24837227  0.75596022  0.99941529    -0.14400
F826        F  0.24456627  0.72236525  0.94528300    -0.12100
C827        C  0.22535005  0.74626175  0.23883763     0.25900
C828        C  0.20450100  0.73734196  0.24605510    -0.22200
C829        C  0.18651648  0.74576826  0.22352993     0.20800
C830        C  0.18926343  0.76274977  0.19462964     0.25900
C831        C  0.21013313  0.77160156  0.18718703    -0.22100
C832        C  0.22811224  0.76319306  0.20980451     0.20800
F833        F  0.24852882  0.77088455  0.20305164    -0.12100
F834        F  0.24333666  0.73823885  0.25897035    -0.14400
F835        F  0.17135088  0.77031271  0.17363857    -0.14400
F836        F  0.16620636  0.73756840  0.22924954    -0.12100
C837        C  0.01662311  0.54211721  0.08802513     0.25900
C838        C  0.02330068  0.56347076  0.07793085    -0.22200
C839        C  0.01319597  0.58118384  0.09802951     0.20800
C840        C  0.99727926  0.57764730  0.12860612     0.25900
C841        C  0.99121998  0.55629546  0.13985045    -0.22100
C842        C  0.00087453  0.53858087  0.11893411     0.20800
F843        F  0.99564600  0.51777778  0.12925082    -0.12100
F844        F  0.02541195  0.52441322  0.56828284    -0.14400
F845        F  0.98766400  0.59522832  0.14692201    -0.14400
F846        F  0.01851450  0.60197388  0.08786096    -0.12100
C847        C  0.02564149  0.54145626  0.37126504     0.25900
C848        C  0.02824556  0.56128141  0.39259592    -0.22200
C849        C  0.01289295  0.57822746  0.38562521     0.20800
C850        C  0.99566906  0.57559002  0.35739426     0.25900
C851        C  0.99338130  0.55601616  0.33521007    -0.22100
C852        C  0.00841003  0.53884759  0.34284399     0.20800
F853        F  0.00645595  0.51940138  0.32302754    -0.12100
F854        F  0.03958403  0.52444604  0.37811064    -0.14400
F855        F  0.98143261  0.59243811  0.35145038    -0.14400
F856        F  0.01443295  0.59754059  0.40604750    -0.12100
C857        C  0.14290765  0.60814359  0.42810536     0.25900
C858        C  0.12109134  0.61488577  0.43303802    -0.22200
C859        C  0.11421057  0.63494570  0.41579184     0.20800
C860        C  0.12899858  0.64798606  0.39357206     0.25900
C861        C  0.15095049  0.64123262  0.38881951    -0.22100
C862        C  0.15770075  0.62119273  0.40651281     0.20800
F863        F  0.17865967  0.61402436  0.40264840    -0.12100
F864        F  0.15004349  0.58895853  0.44490717    -0.14400
F865        F  0.12193639  0.66736577  0.37754644    -0.14400
F866        F  0.09306349  0.64159266  0.41934164    -0.12100
C867        C  0.30875439  0.71695054  0.46727037     0.25900
C868        C  0.32739529  0.70802043  0.48703393    -0.22200
C869        C  0.34817044  0.71569304  0.47509344     0.20800
C870        C  0.35016315  0.73252818  0.44559983     0.25900
C871        C  0.33147865  0.74209988  0.42724298    -0.22100
C872        C  0.31075027  0.73380239  0.43776522     0.20800
F873        F  0.29222263  0.74244559  0.42064448    -0.12100
F874        F  0.28868463  0.70974149  0.97754377    -0.14400
F875        F  0.37045728  0.73947250  0.43518569    -0.14400
F876        F  0.36670848  0.70711688  0.49226865    -0.12100
C877        C  0.30973270  0.72994359  0.18917202     0.25900
C878        C  0.32906511  0.71892667  0.17710490    -0.22200
C879        C  0.34905684  0.72534194  0.19450364     0.20800
C880        C  0.34972495  0.74208314  0.22401246     0.25900
C881        C  0.33035911  0.75281594  0.23690847    -0.22100
C882        C  0.31038433  0.74670382  0.21878818     0.20800
F883        F  0.29133592  0.75625368  0.23094992    -0.12100
F884        F  0.28998644  0.72392383  0.17370934    -0.14400
F885        F  0.36945431  0.74752538  0.24032489    -0.14400
F886        F  0.36804491  0.71539978  0.18308004    -0.12100
C887        C  0.26629467  0.64797058  0.26060804     0.25900
C888        C  0.24388753  0.64982687  0.25101280    -0.22200
C889        C  0.23716508  0.64642793  0.20897310     0.20800
C890        C  0.25258133  0.64351075  0.17687894     0.25900
C891        C  0.27506773  0.64387605  0.18592320    -0.22100
C892        C  0.28169294  0.64491480  0.22853477     0.20800
F893        F  0.30320249  0.64476186  0.23916960    -0.12100
F894        F  0.27357686  0.65069078  0.30066407    -0.14400
F895        F  0.24543511  0.64165483  0.13655387    -0.14400
F896        F  0.21570357  0.64744674  0.19815117    -0.12100
C897        C  0.50095612  0.54189587  0.05850169     0.25900
C898        C  0.49336339  0.55942183  0.03376215    -0.22200
C899        C  0.50285889  0.58010371  0.03918860     0.20800
C900        C  0.51943684  0.58314226  0.06894964     0.25900
C901        C  0.52692448  0.56558074  0.09378844    -0.22100
C902        C  0.51744712  0.54491377  0.08815415     0.20800
F903        F  0.52428845  0.52731121  0.11087060    -0.12100
F904        F  0.49279859  0.52158088  0.05351795    -0.14400
F905        F  0.52810849  0.60328501  0.07331725    -0.14400
F906        F  0.49681556  0.59741947  0.51453546    -0.12100
C907        C  0.49588805  0.57695078  0.31493400     0.25900
C908        C  0.49499806  0.55866244  0.34162037    -0.22200
C909        C  0.51131627  0.54234281  0.33794095     0.20800
C910        C  0.52821434  0.54443796  0.30874156     0.25900
C911        C  0.52929209  0.56287948  0.28246297    -0.22100
C912        C  0.51282119  0.57906297  0.28575817     0.20800
F913        F  0.51284937  0.59695846  0.26045246    -0.12100
F914        F  0.48038718  0.59289282  0.31693149    -0.14400
F915        F  0.54352905  0.52833168  0.30640253    -0.14400
F916        F  0.51103475  0.52417852  0.36252329    -0.12100
C917        C  0.38966075  0.58440685  0.03925002     0.25900
C918        C  0.39261971  0.58679796  0.49522602    -0.22200
C919        C  0.38009714  0.60237292  0.47300790     0.20800
C920        C  0.36516113  0.61570593  0.49422823     0.25900
C921        C  0.36288386  0.61389635  0.03833830    -0.22100
C922        C  0.37518171  0.59824795  0.06063248     0.20800
F923        F  0.37316324  0.59637557  0.10307563    -0.12100
F924        F  0.40145138  0.56954062  0.06179987    -0.14400
F925        F  0.35373543  0.63100133  0.47204515    -0.14400
F926        F  0.38240317  0.60482640  0.43073016    -0.12100
C927        C  0.22322463  0.24544020  0.17994642     0.25900
C928        C  0.20343639  0.23411495  0.17486377    -0.22200
C929        C  0.18533825  0.24029709  0.19940990     0.20800
C930        C  0.18711219  0.25707005  0.22887846     0.25900
C931        C  0.20707701  0.26802883  0.23471536    -0.22100
C932        C  0.22506212  0.26204392  0.20967580     0.20800
F933        F  0.24471550  0.27177483  0.21466929    -0.12100
F934        F  0.24115343  0.24018989  0.15683294    -0.14400
F935        F  0.16921004  0.26230906  0.25206496    -0.14400
F936        F  0.16590148  0.23003648  0.19525553    -0.12100
C937        C  0.22234574  0.24504312  0.42912488     0.25900
C938        C  0.20497609  0.26021965  0.42499918    -0.22200
C939        C  0.18612203  0.25733670  0.44951333     0.20800
C940        C  0.18490398  0.24007054  0.47827895     0.25900
C941        C  0.20260095  0.22533427  0.48340988    -0.22100
C942        C  0.22108960  0.22757388  0.95747840     0.20800
F943        F  0.23862141  0.21396485  0.96123023    -0.12100
F944        F  0.24082576  0.24694455  0.40584668    -0.14400
F945        F  0.16646945  0.23814731  0.50168198    -0.14400
F946        F  0.16891256  0.27138885  0.44625995    -0.12100
C947        C  0.99923886  0.44150190  0.09071688     0.25900
C948        C  0.99776074  0.42322398  0.06448894    -0.22200
C949        C  0.01356302  0.40642482  0.06840006     0.20800
C950        C  0.03116903  0.40850879  0.09595425     0.25900
C951        C  0.03313488  0.42716734  0.12104266    -0.22100
C952        C  0.01669850  0.44344740  0.11877233     0.20800
F953        F  0.01762515  0.46156228  0.14307182    -0.12100
F954        F  0.98401328  0.45772779  0.08885445    -0.14400
F955        F  0.04651098  0.39237990  0.09721816    -0.14400
F956        F  0.01252966  0.38816583  0.04451157    -0.12100
C957        C  0.04241625  0.43899548  0.34672257     0.25900
C958        C  0.04218189  0.42613344  0.31025391    -0.22200
C959        C  0.02648250  0.40955866  0.30667178     0.20800
C960        C  0.01080113  0.40658489  0.33798376     0.25900
C961        C  0.01037099  0.42014302  0.37346439    -0.22100
C962        C  0.02669857  0.43602195  0.37806303     0.20800
F963        F  0.02743645  0.44882012  0.41280099    -0.12100
F964        F  0.05786654  0.45446231  0.35216138    -0.14400
F965        F  0.99540922  0.39106491  0.33246921    -0.14400
F966        F  0.02566187  0.39667650  0.27206211    -0.12100
C967        C  0.11578829  0.50533901  0.06368969     0.25900
C968        C  0.10860248  0.52609383  0.07641412    -0.22200
C969        C  0.10508115  0.52985793  0.11966514     0.20800
C970        C  0.10592740  0.51258680  0.14856829     0.25900
C971        C  0.11040712  0.49122660  0.13490326    -0.22100
C972        C  0.11668907  0.48806220  0.09258291     0.20800
F973        F  0.12218825  0.46795312  0.07820218    -0.12100
F974        F  0.12055760  0.50138194  0.02265914    -0.14400
F975        F  0.10058614  0.51659019  0.18930256    -0.14400
F976        F  0.09878054  0.54981666  0.13368123    -0.12100
C977        C  0.14046398  0.39205515  0.30041326     0.25900
C978        C  0.13854084  0.39442034  0.25640353    -0.22200
C979        C  0.15249874  0.38236067  0.23015997     0.20800
C980        C  0.16816250  0.36820640  0.24748856     0.25900
C981        C  0.16985741  0.36548418  0.29144538    -0.22100
C982        C  0.15592711  0.37762630  0.31777165     0.20800
F983        F  0.15731125  0.37558674  0.36030624    -0.12100
F984        F  0.12678220  0.40303881  0.32662959    -0.14400
F985        F  0.18108412  0.35649239  0.22108307    -0.14400
F986        F  0.15101696  0.38431203  0.18762869    -0.12100
C987        C  0.53709177  0.41638692  0.28923673     0.25900
C988        C  0.52659512  0.43451033  0.27079878    -0.22200
C989        C  0.53400384  0.45558636  0.28089927     0.20800
C990        C  0.55000751  0.45844214  0.31194723     0.25900
C991        C  0.55917492  0.44028757  0.33280389    -0.22100
C992        C  0.55325946  0.41923110  0.31968517     0.20800
F993        F  0.56240933  0.40121832  0.33774302    -0.12100
F994        F  0.53117819  0.39580716  0.27906123    -0.14400
F995        F  0.55525868  0.47898129  0.32368220    -0.14400
F996        F  0.52484253  0.47357397  0.26278389    -0.12100
C997        C  0.52204333  0.42041388  0.02865792     0.25900
C998        C  0.53224081  0.44044201  0.02135662    -0.22200
C999        C  0.52360775  0.45942188  0.04003592     0.20800
C1000       C  0.50643872  0.45802039  0.06888019     0.25900
C1001       C  0.49778686  0.43761742  0.07950235    -0.22100
C1002       C  0.50487487  0.41902013  0.05735572     0.20800
F1003       F  0.49596565  0.39923188  0.06519970    -0.12100
F1004       F  0.52915084  0.40205951  0.00904528    -0.14400
F1005       F  0.49979849  0.47629523  0.08930063    -0.14400
F1006       F  0.53313206  0.47913148  0.53337813    -0.12100
C1007       C  0.43090885  0.47522645  0.36898227     0.25900
C1008       C  0.42472176  0.49677498  0.35902976    -0.22200
C1009       C  0.41971762  0.50199115  0.31673389     0.20800
C1010       C  0.42384259  0.48697908  0.28467660     0.25900
C1011       C  0.43280760  0.46635162  0.29420035    -0.22100
C1012       C  0.43489769  0.46014099  0.33690333     0.20800
F1013       F  0.44236352  0.43998260  0.34781256    -0.12100
F1014       F  0.43465941  0.46912628  0.40954873    -0.14400
F1015       F  0.42037490  0.49324113  0.24411539    -0.14400
F1016       F  0.41260207  0.52225640  0.30569291    -0.12100
C1017       C  0.32297938  0.21950825  0.44792261     0.25900
C1018       C  0.34008099  0.21361329  0.42069838    -0.22200
C1019       C  0.36018446  0.22462053  0.42399570     0.20800
C1020       C  0.36252380  0.24300920  0.95048726     0.25900
C1021       C  0.34553474  0.24858682  0.97818851    -0.22100
C1022       C  0.32554948  0.23660441  0.47633753     0.20800
F1023       F  0.30933860  0.24079188  0.00394672    -0.12100
F1024       F  0.30355647  0.20902118  0.44673445    -0.14400
F1025       F  0.38145174  0.25436434  0.95011535    -0.14400
F1026       F  0.37744585  0.21911817  0.39929667    -0.12100
C1027       C  0.35971786  0.22648230  0.20667094     0.25900
C1028       C  0.33994357  0.22273319  0.22781926    -0.22200
C1029       C  0.32197309  0.23673067  0.21932116     0.20800
C1030       C  0.32369773  0.25374589  0.18994899     0.25900
C1031       C  0.34341752  0.25729113  0.16838798    -0.22100
C1032       C  0.36146756  0.24352803  0.17746703     0.20800
F1033       F  0.38092641  0.24634657  0.15782355    -0.12100
F1034       F  0.37750602  0.21362670  0.21410889    -0.14400
F1035       F  0.30578024  0.26632063  0.18180737    -0.14400
F1036       F  0.30243702  0.23370735  0.23857984    -0.12100
C1037       C  0.26125535  0.33635124  0.46111803     0.25900
C1038       C  0.26609737  0.33554201  0.41769678    -0.22200
C1039       C  0.28817029  0.33545607  0.40535808     0.20800
C1040       C  0.30488642  0.33414801  0.43565713     0.25900
C1041       C  0.29908595  0.33261808  0.98033792    -0.22100
C1042       C  0.27706171  0.33414308  0.99271274     0.20800
F1043       F  0.27143429  0.33278930  0.03397206    -0.12100
F1044       F  0.24024289  0.33671598  0.47478895    -0.14400
F1045       F  0.32589012  0.33273262  0.42215317    -0.14400
F1046       F  0.29361764  0.33547967  0.36392707    -0.12100
C1047       C  0.38536560  0.36858790  0.13590364     0.25900
C1048       C  0.39350397  0.34981502  0.11568050    -0.22200
C1049       C  0.41617809  0.34555753  0.11674520     0.20800
C1050       C  0.43032056  0.35972126  0.13773925     0.25900
C1051       C  0.42209203  0.37854422  0.15747808    -0.22100
C1052       C  0.39949759  0.38278862  0.15640779     0.20800
F1053       F  0.39101663  0.40075644  0.17538212    -0.12100
F1054       F  0.36368947  0.37352771  0.13522161    -0.14400
F1055       F  0.45214241  0.35547374  0.13730468    -0.14400
F1056       F  0.42469322  0.32760627  0.09783266    -0.12100
O1057       O  0.31200915  0.31996430  0.54758461    -0.55500
C1058       C  0.34493602  0.27423542  0.63438098     0.77200
O1059       O  0.36427648  0.27909992  0.50853687    -0.56600
C1060       C  0.31682707  0.32561975  0.51015503     0.77100
C1061       C  0.37849995  0.33418019  0.59529967     0.79500
Cd1062     Cd  0.34797915  0.30306456  0.56307128     1.37500
O1063       O  0.32983255  0.28815710  0.62689406    -0.55500
O1064       O  0.35844115  0.33419019  0.60512246    -0.54300
C1065       C  0.34740853  0.26707875  0.50706436     0.79500
O1066       O  0.38458075  0.32009325  0.56840754    -0.56700
O1067       O  0.36137700  0.27486289  0.61031344    -0.55100
O1068       O  0.33666745  0.32316921  0.49964394    -0.55100
O1069       O  0.33189757  0.27203283  0.53153301    -0.54300
O1070       O  0.44469738  0.45929271  0.72307062    -0.55500
C1071       C  0.48545240  0.43482712  0.61896252     0.77200
O1072       O  0.49685576  0.41346668  0.74332570    -0.56600
C1073       C  0.44270086  0.45240002  0.76074119     0.77100
C1074       C  0.43732258  0.39475873  0.67490166     0.79500
Cd1075     Cd  0.46681741  0.42801025  0.69967609     1.37500
O1076       O  0.47388039  0.44992741  0.63524441    -0.55500
O1077       O  0.43264070  0.41486972  0.67240871    -0.54300
C1078       C  0.50699153  0.43146889  0.74482969     0.79500
O1079       O  0.45551636  0.38966621  0.69189381    -0.56700
O1080       O  0.48707251  0.41716194  0.63938647    -0.55100
O1081       O  0.45071702  0.43370446  0.76870969    -0.55100
O1082       O  0.49875103  0.44720600  0.72415914    -0.54300
O1083       O  0.09725167  0.47461002  0.69950856    -0.55500
C1084       C  0.05777120  0.43019238  0.77627336     0.77200
O1085       O  0.06726695  0.41564736  0.65291321    -0.56600
C1086       C  0.10489535  0.47234795  0.66255302     0.77100
C1087       C  0.12136948  0.40906412  0.73861041     0.79500
Cd1088     Cd  0.08677285  0.43602110  0.70730615     1.37500
O1089       O  0.06843299  0.44781572  0.77256945    -0.55500
O1090       O  0.11525799  0.42619514  0.75744859    -0.54300
C1091       C  0.05195178  0.42976187  0.64988562     0.79500
O1092       O  0.11215415  0.40495330  0.70368177    -0.56700
O1093       O  0.06100680  0.41585496  0.74844282    -0.55100
O1094       O  0.10604174  0.45304118  0.64883525    -0.55100
O1095       O  0.05349822  0.44646759  0.67282043    -0.54300
O1096       O  0.25124174  0.32450310  0.85088335    -0.55500
C1097       C  0.20912734  0.28496328  0.76818092     0.77200
O1098       O  0.19154890  0.29309570  0.89124154    -0.56600
C1099       C  0.24751758  0.33129043  0.88801710     0.77100
C1100       C  0.18471048  0.34904839  0.80982761     0.79500
Cd1101     Cd  0.21243374  0.31401747  0.83831111     1.37500
O1102       O  0.22641225  0.29594583  0.77384466    -0.55500
O1103       O  0.20249039  0.34426094  0.79151098    -0.54300
C1104       C  0.20644558  0.27860888  0.89533271     0.79500
O1105       O  0.18030980  0.33840641  0.84307342    -0.56700
O1106       O  0.19365447  0.28842370  0.79376495    -0.55100
O1107       O  0.22763979  0.33254829  0.89872229    -0.55100
O1108       O  0.22339492  0.28104962  0.87320571    -0.54300
O1109       O  0.43746517  0.51099462  0.92560352    -0.55500
C1110       C  0.47620865  0.55613141  0.50141102     0.77200
O1111       O  0.46187948  0.57009953  0.87749597    -0.56600
C1112       C  0.42811810  0.51422913  0.89024144     0.77100
C1113       C  0.40955107  0.57354694  0.97347042     0.79500
Cd1114     Cd  0.44499104  0.54992478  0.93643173     1.37500
O1115       O  0.46608522  0.53819811  0.49789672    -0.55500
O1116       O  0.41592752  0.55523787  0.98774719    -0.54300
C1117       C  0.47743037  0.55628303  0.87359100     0.79500
O1118       O  0.41888079  0.58041845  0.94028236    -0.56700
O1119       O  0.47112332  0.57106895  0.47546084    -0.55100
O1120       O  0.42392159  0.53386118  0.88046262    -0.55100
O1121       O  0.47743424  0.54026791  0.89878480    -0.54300
O1122       O  0.28566254  0.65234615  0.61401614    -0.55500
C1123       C  0.32550517  0.69187275  0.02218058     0.77200
O1124       O  0.34322333  0.68625347  0.64490820    -0.56600
C1125       C  0.29126170  0.64724326  0.65151996     0.77100
C1126       C  0.34856179  0.62971743  0.56024395     0.79500
Cd1127     Cd  0.32282300  0.66426748  0.59408100     1.37500
O1128       O  0.30736061  0.68281296  0.53123722    -0.55500
O1129       O  0.32974117  0.63447136  0.54593149    -0.54300
C1130       C  0.32805236  0.70056855  0.64758242     0.79500
O1131       O  0.35489125  0.63980065  0.59289596    -0.56700
O1132       O  0.34155414  0.68763847  0.54549328    -0.55100
O1133       O  0.31156042  0.64712176  0.65935493    -0.55100
O1134       O  0.31149133  0.69811159  0.62421655    -0.54300
O1135       O  0.09650327  0.53668665  0.00697702    -0.55500
C1136       C  0.04607067  0.56429252  0.92387903     0.77200
O1137       O  0.05141013  0.58470457  0.54410870    -0.56600
C1138       C  0.10070864  0.54207659  0.54456177     0.77100
C1139       C  0.10564322  0.60027290  0.95414741     0.79500
Cd1140     Cd  0.07609621  0.57006436  0.99050622     1.37500
O1141       O  0.06070869  0.54982462  0.93090768    -0.55500
O1142       O  0.10672765  0.57995290  0.94756435    -0.54300
C1143       C  0.04107358  0.56679859  0.54720747     0.79500
O1144       O  0.09081906  0.60702844  0.97904158    -0.56700
O1145       O  0.04691195  0.58142386  0.94579624    -0.55100
O1146       O  0.09590388  0.56150181  0.55469992    -0.55100
O1147       O  0.04699175  0.55142620  0.52329482    -0.54300
O1148       O  0.23399830  0.66425459  0.81935847    -0.55500
C1149       C  0.20384019  0.71157485  0.90631540     0.77200
O1150       O  0.18429041  0.70828312  0.77939687    -0.56600
C1151       C  0.22813416  0.65864824  0.78249146     0.77100
C1152       C  0.16721165  0.65544524  0.86802995     0.79500
Cd1153     Cd  0.19952919  0.68402791  0.83466096     1.37500
O1154       O  0.21932825  0.69859121  0.89641452    -0.55500
O1155       O  0.18741456  0.65342706  0.87625882    -0.54300
C1156       C  0.20173357  0.71934977  0.77656943     0.79500
O1157       O  0.16180750  0.67028670  0.84183708    -0.56700
O1158       O  0.18665835  0.71066293  0.88419953    -0.55100
O1159       O  0.20840213  0.66260479  0.77268203    -0.55100
O1160       O  0.21715390  0.71411840  0.80131201    -0.54300
O1161       O  0.56083195  0.54978733  0.74374560    -0.55500
C1162       C  0.60475225  0.54272073  0.63333880     0.77200
O1163       O  0.55525610  0.58594573  0.62950426    -0.56600
C1164       C  0.54699296  0.56494150  0.75107431     0.77100
C1165       C  0.60772281  0.59792899  0.72766118     0.79500
Cd1166     Cd  0.57840292  0.56979996  0.68569523     1.37500
O1167       O  0.59843303  0.53620897  0.66941637    -0.55500
O1168       O  0.60703727  0.57761609  0.73474047    -0.54300
C1169       C  0.54457286  0.56833183  0.62515032     0.79500
O1170       O  0.59507845  0.60546734  0.69907726    -0.56700
O1171       O  0.60101468  0.56255745  0.62429661    -0.55100
O1172       O  0.54877950  0.58220649  0.72940751    -0.55100
O1173       O  0.54981490  0.55259630  0.64911351    -0.54300
O1174       O  0.71123442  0.69495673  0.79782080    -0.55500
C1175       C  0.72309596  0.65912564  0.91670150     0.77200
O1176       O  0.67689693  0.70624294  0.91567232    -0.56600
C1177       C  0.69501093  0.70690596  0.78705918     0.77100
C1178       C  0.66361781  0.65130907  0.82947226     0.79500
Cd1179     Cd  0.69336359  0.68182630  0.86248358     1.37500
O1180       O  0.72885645  0.66466612  0.87969948    -0.55500
O1181       O  0.68407207  0.64935802  0.82437544    -0.54300
C1182       C  0.69378030  0.71819721  0.91740341     0.79500
O1183       O  0.65689093  0.66632516  0.85380555    -0.56700
O1184       O  0.70308990  0.66182243  0.92587877    -0.55100
O1185       O  0.67850120  0.70652005  0.81092750    -0.55100
O1186       O  0.70931741  0.71354011  0.89270470    -0.54300
O1187       O  0.73095133  0.29800334  0.91331609    -0.55500
C1188       C  0.74810315  0.32955461  0.79266542     0.77200
O1189       O  0.69449024  0.29128537  0.79680549    -0.56600
C1190       C  0.71322506  0.28866784  0.92353310     0.77100
C1191       C  0.68772935  0.34902888  0.87411661     0.79500
Cd1192     Cd  0.71503631  0.31344060  0.84791006     1.37500
O1193       O  0.75313007  0.32301822  0.82958413    -0.55500
O1194       O  0.70775647  0.34805502  0.88444216    -0.54300
C1195       C  0.70860068  0.27591732  0.79653388     0.79500
O1196       O  0.68090540  0.33437775  0.84938199    -0.56700
O1197       O  0.72789063  0.33096493  0.78437172    -0.55100
O1198       O  0.69688095  0.29197954  0.89986754    -0.55100
O1199       O  0.72499656  0.27812659  0.82037615    -0.54300
O1200       O  0.58166900  0.46032216  0.88268806    -0.55500
C1201       C  0.60969922  0.47767163  0.00752853     0.77200
O1202       O  0.56650198  0.42580199  0.99723948    -0.56600
C1203       C  0.57240388  0.44268706  0.87207240     0.77100
C1204       C  0.62767560  0.41418919  0.93786266     0.79500
Cd1205     Cd  0.59296229  0.44489132  0.95262257     1.37500
O1206       O  0.60599587  0.48195791  0.96888542    -0.55500
O1207       O  0.62921279  0.43387185  0.92599120    -0.54300
C1208       C  0.55267757  0.44139444  0.99703075     0.79500
O1209       O  0.61099437  0.40933967  0.95950032    -0.56700
O1210       O  0.60730323  0.45802617  0.01883284    -0.55100
O1211       O  0.57388952  0.42699190  0.89777076    -0.55100
O1212       O  0.55756697  0.45820376  0.97603906    -0.54300
O1213       O  0.81535286  0.69279838  0.64056932    -0.55500
C1214       C  0.79203019  0.65349615  0.53720564     0.77200
O1215       O  0.84898323  0.68948992  0.52045129    -0.56600
C1216       C  0.83301113  0.70330050  0.64529277     0.77100
C1217       C  0.85630524  0.63880905  0.61447551     0.79500
Cd1218     Cd  0.82891142  0.67220762  0.57937745     1.37500
O1219       O  0.78966659  0.66291974  0.57245750    -0.55500
O1220       O  0.83784161  0.64380673  0.62980797    -0.54300
C1221       C  0.83519576  0.70507283  0.51731673     0.79500
O1222       O  0.86163730  0.64841024  0.58054856    -0.56700
O1223       O  0.81152782  0.65051831  0.52505175    -0.55100
O1224       O  0.84851413  0.69843707  0.62070772    -0.55100
O1225       O  0.81924329  0.70477408  0.54247583    -0.54300
O1226       O  0.93288409  0.51065007  0.74597027    -0.55500
C1227       C  0.97528669  0.55278971  0.67379567     0.77200
O1228       O  0.92038614  0.58119984  0.73747526    -0.56600
C1229       C  0.92267481  0.51393010  0.78022411     0.77100
C1230       C  0.97608603  0.55384629  0.80336453     0.79500
Cd1231     Cd  0.94420354  0.54881525  0.73897564     1.37500
O1232       O  0.96477637  0.53511625  0.67807995    -0.55500
O1233       O  0.97588994  0.53766033  0.77890967    -0.54300
C1234       C  0.91325964  0.57762354  0.70056746     0.79500
O1235       O  0.96100076  0.56802009  0.79820740    -0.56700
O1236       O  0.97142923  0.56770890  0.70018808    -0.55100
O1237       O  0.91991938  0.53358680  0.79096583    -0.55100
O1238       O  0.91943297  0.56014198  0.68303666    -0.54300
O1239       O  0.82058968  0.28476618  0.53606656    -0.55500
C1240       C  0.80980696  0.32131955  0.65858616     0.77200
O1241       O  0.85433091  0.27412107  0.65244581    -0.56600
C1242       C  0.83656428  0.27195730  0.52804855     0.77100
C1243       C  0.86650335  0.33088874  0.57249874     0.79500
Cd1244     Cd  0.83759341  0.29889146  0.60089648     1.37500
O1245       O  0.80270635  0.31593727  0.62232946    -0.55500
O1246       O  0.84626519  0.33182510  0.56391407    -0.54300
C1247       C  0.83718961  0.26254108  0.65458098     0.79500
O1248       O  0.87320936  0.31542789  0.59612528    -0.56700
O1249       O  0.82998063  0.31810776  0.66549541    -0.55100
O1250       O  0.85292628  0.27294023  0.55239303    -0.55100
O1251       O  0.82130398  0.26796522  0.63106421    -0.54300
O1252       O  0.96944816  0.43840151  0.52006121    -0.55500
C1253       C  0.93053134  0.44787665  0.90296761     0.77200
O1254       O  0.97908809  0.40303858  0.90599396    -0.56600
C1255       C  0.98144965  0.42214181  0.53037186     0.77100
C1256       C  0.92398449  0.39080203  0.49033255     0.79500
Cd1257     Cd  0.95480510  0.42015278  0.95778401     1.37500
O1258       O  0.93634347  0.45435400  0.93931680    -0.55500
O1259       O  0.92317522  0.41100377  0.49825542    -0.54300
C1260       C  0.99166292  0.41941020  0.90365894     0.79500
O1261       O  0.93840785  0.38452521  0.96511162    -0.56700
O1262       O  0.93450411  0.42812314  0.89418909    -0.55100
O1263       O  0.97969669  0.40514409  0.50831815    -0.55100
O1264       O  0.98718426  0.43543921  0.92716248    -0.54300
O1265       O  0.31856655  0.18873979  0.87993906    -0.55500
C1266       C  0.29910932  0.15089577  0.76482000     0.77200
O1267       O  0.35219889  0.18947640  0.76178861    -0.56600
C1268       C  0.33692976  0.19773643  0.88671684     0.77100
C1269       C  0.35563741  0.13358252  0.85351020     0.79500
Cd1270     Cd  0.33206599  0.16930145  0.81685792     1.37500
O1271       O  0.29426736  0.15838314  0.80103195    -0.55500
O1272       O  0.33591063  0.13759595  0.86295616    -0.54300
C1273       C  0.33778317  0.20452872  0.75818840     0.79500
O1274       O  0.36418278  0.14506823  0.82457847    -0.56700
O1275       O  0.31925516  0.14984554  0.75579409    -0.55100
O1276       O  0.35239220  0.19261582  0.86218692    -0.55100
O1277       O  0.32127053  0.20303375  0.78196574    -0.54300
O1278       O  0.46508020  0.03383552  0.91150668    -0.55500
C1279       C  0.42748488  0.01290646  0.02248228     0.77200
O1280       O  0.46754880  0.06757714  0.02743454    -0.56600
C1281       C  0.47510827  0.05162195  0.90509301     0.77100
C1282       C  0.41085639  0.07293694  0.94388276     0.79500
Cd1283     Cd  0.44638005  0.04717938  0.97475167     1.37500
O1284       O  0.43522045  0.00913909  0.98601869    -0.55500
O1285       O  0.41529445  0.05433119  0.92882368    -0.54300
C1286       C  0.48152522  0.05226307  0.03238593     0.79500
O1287       O  0.42212242  0.07887544  0.97541680    -0.56700
O1288       O  0.42674670  0.03224173  0.53364887    -0.55100
O1289       O  0.47088557  0.06712439  0.92997419    -0.55100
O1290       O  0.47863805  0.03514392  0.01116419    -0.54300
O1291       O  0.23860455  0.16354325  0.60192153    -0.55500
C1292       C  0.20228586  0.20859740  0.51724935     0.77200
O1293       O  0.16728572  0.16063685  0.59244644    -0.56600
C1294       C  0.23329147  0.15635528  0.63812016     0.77100
C1295       C  0.20188774  0.21604372  0.64483567     0.79500
Cd1296     Cd  0.20199992  0.18009270  0.58824533     1.37500
O1297       O  0.21802225  0.19520633  0.52346014    -0.55500
O1298       O  0.21787867  0.21125135  0.62131226    -0.54300
C1299       C  0.17075591  0.14936000  0.55964995     0.79500
O1300       O  0.18512062  0.20405244  0.64179517    -0.56700
O1301       O  0.18642128  0.20758382  0.54267470    -0.55100
O1302       O  0.21331287  0.15805997  0.64781095    -0.55100
O1303       O  0.18893964  0.15187516  0.54132581    -0.54300
O1304       O  0.05990142  0.04091417  0.52381124    -0.55500
C1305       C  0.10263423  0.03008433  0.91593209     0.77200
O1306       O  0.05096612  0.07677570  0.91307603    -0.56600
C1307       C  0.04679007  0.05665047  0.53140373     0.77100
C1308       C  0.10654801  0.09051670  0.49390268     0.79500
Cd1309     Cd  0.07626586  0.05926290  0.96379424     1.37500
O1310       O  0.09619855  0.02474305  0.95260620    -0.55500
O1311       O  0.10274205  0.07282142  0.51306553    -0.54300
C1312       C  0.04018390  0.05941739  0.90713696     0.79500
O1313       O  0.09623189  0.09365748  0.96032025    -0.56700
O1314       O  0.09829384  0.04934788  0.90402880    -0.55100
O1315       O  0.04870854  0.07357883  0.50885305    -0.55100
O1316       O  0.04665932  0.04260960  0.92688752    -0.54300
O1317       O  0.47131258  0.92788371  0.75332542    -0.55500
C1318       C  0.43299096  0.94352333  0.64092333     0.77200
O1319       O  0.47934221  0.89623533  0.63124922    -0.56600
C1320       C  0.48482638  0.91238083  0.76028931     0.77100
C1321       C  0.42540135  0.88199762  0.71806679     0.79500
Cd1322     Cd  0.45700063  0.91173391  0.68835269     1.37500
O1323       O  0.44125370  0.94820774  0.67650096    -0.55500
O1324       O  0.42593750  0.90176266  0.72920212    -0.54300
C1325       C  0.49229671  0.91235158  0.63071326     0.79500
O1326       O  0.43953897  0.87578266  0.69127869    -0.56700
O1327       O  0.43408969  0.92373061  0.63000496    -0.55100
O1328       O  0.48423789  0.89646477  0.73513922    -0.55100
O1329       O  0.48864068  0.92730488  0.65707383    -0.54300
O1330       O  0.30323372  0.81818462  0.86399468    -0.55500
C1331       C  0.33127013  0.76902409  0.77145632     0.77200
O1332       O  0.37197441  0.81039488  0.82780340    -0.56600
C1333       C  0.31142238  0.82331794  0.89952427     0.77100
C1334       C  0.33365214  0.76061449  0.89801965     0.79500
Cd1335     Cd  0.33529679  0.79677656  0.84207764     1.37500
O1336       O  0.31519781  0.78138160  0.78130432    -0.55500
O1337       O  0.31747783  0.76678745  0.87586291    -0.54300
C1338       C  0.36523151  0.82561510  0.80359420     0.79500
O1339       O  0.35123779  0.77141113  0.89405257    -0.56700
O1340       O  0.34840992  0.77060147  0.79351881    -0.55100
O1341       O  0.33119047  0.81780755  0.90594906    -0.55100
O1342       O  0.34473290  0.82800880  0.79932558    -0.54300
O1343       O  0.07753165  0.94768878  0.67954186    -0.55500
C1344       C  0.11426305  0.96442565  0.79411483     0.77200
O1345       O  0.07561630  0.91173372  0.79783556    -0.56600
C1346       C  0.06756709  0.93003155  0.67169951     0.77100
C1347       C  0.13000195  0.90643033  0.70573011     0.79500
Cd1348     Cd  0.09576030  0.93182036  0.74250600     1.37500
O1349       O  0.10679938  0.96908584  0.75768735    -0.55500
O1350       O  0.12843297  0.92676197  0.69912865    -0.54300
C1351       C  0.06006612  0.92566621  0.79964012     0.79500
O1352       O  0.11697818  0.89826357  0.73250980    -0.56700
O1353       O  0.11551875  0.94438570  0.80374603    -0.55100
O1354       O  0.07175237  0.91400500  0.69562763    -0.55100
O1355       O  0.06137192  0.94184942  0.77497325    -0.54300
O1356       O  0.23116013  0.79780117  0.64683765    -0.55500
C1357       C  0.25056730  0.83498523  0.53152735     0.77200
O1358       O  0.19755843  0.79693206  0.52758787    -0.56600
C1359       C  0.21304157  0.78838426  0.65376127     0.77100
C1360       C  0.18912584  0.85108094  0.61259437     0.79500
Cd1361     Cd  0.21703529  0.81686484  0.58298813     1.37500
O1362       O  0.25510258  0.82847508  0.56872109    -0.55500
O1363       O  0.20907922  0.85000127  0.62342413    -0.54300
C1364       C  0.21153789  0.78145450  0.52642008     0.79500
O1365       O  0.18273109  0.83751044  0.58526579    -0.56700
O1366       O  0.23052400  0.83538015  0.52150160    -0.55100
O1367       O  0.19738677  0.79337839  0.62942639    -0.55100
O1368       O  0.22762606  0.78268301  0.55135808    -0.54300
O1369       O  0.71944642  0.19472638  0.66406501    -0.55500
C1370       C  0.72794996  0.15960622  0.53874149     0.77200
O1371       O  0.66539877  0.16722329  0.59969833    -0.56600
C1372       C  0.70355518  0.20734011  0.67365441     0.77100
C1373       C  0.70404217  0.22087100  0.54699780     0.79500
Cd1374     Cd  0.70183949  0.18297897  0.59787613     1.37500
O1375       O  0.73580480  0.16423923  0.57481091    -0.55500
O1376       O  0.72015270  0.21359420  0.56802657    -0.54300
C1377       C  0.67112623  0.15168775  0.62410587     0.79500
O1378       O  0.68609927  0.21064050  0.55026837    -0.56700
O1379       O  0.70787723  0.16391397  0.53294216    -0.55100
O1380       O  0.68722866  0.20739709  0.64911131    -0.55100
O1381       O  0.69110446  0.15054191  0.63469917    -0.54300
O1382       O  0.59754033  0.02514059  0.73584616    -0.55500
C1383       C  0.55221762  0.05784357  0.65253516     0.77200
O1384       O  0.55590655  0.07710993  0.77929532    -0.56600
C1385       C  0.60396870  0.02940711  0.77298660     0.77100
C1386       C  0.61052077  0.09073816  0.69509834     0.79500
Cd1387     Cd  0.57952594  0.06042733  0.72473043     1.37500
O1388       O  0.56458205  0.04189350  0.66273153    -0.55500
O1389       O  0.61171308  0.07070329  0.68598888    -0.54300
C1390       C  0.54392484  0.06032641  0.78205547     0.79500
O1391       O  0.59530314  0.09669987  0.71975827    -0.56700
O1392       O  0.55381041  0.07491292  0.67440421    -0.55100
O1393       O  0.60077834  0.04872199  0.78565720    -0.55100
O1394       O  0.54858486  0.04461188  0.75801733    -0.54300
O1395       O  0.72091256  0.79548934  0.04964247    -0.55500
C1396       C  0.73815242  0.83065616  0.66717395     0.77200
O1397       O  0.67137798  0.83392532  0.60940343    -0.56600
C1398       C  0.70275397  0.78694625  0.03949163     0.77100
C1399       C  0.69964732  0.77528380  0.66349399     0.79500
Cd1400     Cd  0.70546893  0.81295207  0.61275615     1.37500
O1401       O  0.74274386  0.82586513  0.62920552    -0.55500
O1402       O  0.71595475  0.77770074  0.63956396    -0.54300
C1403       C  0.67841628  0.84761236  0.58265786     0.79500
O1404       O  0.68551841  0.79065866  0.66389391    -0.56700
O1405       O  0.71827862  0.82907189  0.67775169    -0.55100
O1406       O  0.68644420  0.79167366  0.56166002    -0.55100
O1407       O  0.69852021  0.84642859  0.57326287    -0.54300
O1408       O  0.56937582  0.94099359  0.49964651    -0.55500
C1409       C  0.60941114  0.96044457  0.89087576     0.77200
O1410       O  0.61188773  0.89459395  0.95158625    -0.56600
C1411       C  0.56015121  0.92277832  0.50640048     0.77100
C1412       C  0.55529983  0.92011361  0.88087174     0.79500
Cd1413     Cd  0.58973557  0.92713104  0.93962683     1.37500
O1414       O  0.60078884  0.96475580  0.92635212    -0.55500
O1415       O  0.55625540  0.93658729  0.90459225    -0.54300
C1416       C  0.62292123  0.90286595  0.98137743     0.79500
O1417       O  0.57109913  0.90647837  0.88352246    -0.56700
O1418       O  0.61083916  0.94051088  0.88084722    -0.55100
O1419       O  0.56542053  0.90716521  0.48254673    -0.55100
O1420       O  0.62012501  0.92297914  0.98862027    -0.54300
O1421       O  0.94094704  0.95535865  0.50720937    -0.55500
C1422       C  0.99103209  0.92221965  0.92438386     0.77200
O1423       O  0.98565797  0.90585469  0.54788361    -0.56600
C1424       C  0.93383701  0.94885871  0.54275108     0.77100
C1425       C  0.93236508  0.89032442  0.95613602     0.79500
Cd1426     Cd  0.96130028  0.92090608  0.99342441     1.37500
O1427       O  0.97760543  0.93795076  0.93014138    -0.55500
O1428       O  0.93419100  0.90983365  0.94355480    -0.54300
C1429       C  0.99707230  0.92304430  0.55094533     0.79500
O1430       O  0.94348619  0.88478071  0.98847535    -0.56700
O1431       O  0.98983871  0.90632399  0.94982018    -0.55100
O1432       O  0.93792044  0.92920590  0.55253618    -0.55100
O1433       O  0.99145722  0.93900621  0.52779253    -0.54300
O1434       O  0.80470143  0.82072108  0.82233101    -0.55500
C1435       C  0.84114540  0.77477485  0.89516058     0.77200
O1436       O  0.85801647  0.78549906  0.76878671    -0.56600
C1437       C  0.80795505  0.82957815  0.78668193     0.77100
C1438       C  0.87303752  0.83440082  0.86692576     0.79500
Cd1439     Cd  0.84213844  0.80597528  0.82903623     1.37500
O1440       O  0.82600014  0.78895733  0.89066286    -0.55500
O1441       O  0.85496187  0.82991744  0.88398949    -0.54300
C1442       C  0.84190404  0.77251711  0.76733871     0.79500
O1443       O  0.87661538  0.82661441  0.83051959    -0.56700
O1444       O  0.85700113  0.77575132  0.86963257    -0.55100
O1445       O  0.82761731  0.83024302  0.77444199    -0.55100
O1446       O  0.82715642  0.77527162  0.79458829    -0.54300
O1447       O  0.93040603  0.01008993  0.70195938    -0.55500
C1448       C  0.97091388  0.05198829  0.78401472     0.77200
O1449       O  0.96312021  0.06688263  0.65835552    -0.56600
C1450       C  0.92317341  0.01396409  0.66500509     0.77100
C1451       C  0.90706150  0.07356552  0.74081753     0.79500
Cd1452     Cd  0.94270395  0.04765596  0.71290509     1.37500
O1453       O  0.96149810  0.03398455  0.77670659    -0.55500
O1454       O  0.91139865  0.05500702  0.75655136    -0.54300
C1455       C  0.97742201  0.05182730  0.65446603     0.79500
O1456       O  0.91881061  0.07981759  0.71018171    -0.56700
O1457       O  0.96630608  0.06764765  0.75938445    -0.55100
O1458       O  0.92296536  0.03368728  0.65318850    -0.55100
O1459       O  0.97543742  0.03534562  0.67817405    -0.54300
O1460       O  0.78276654  0.15905663  0.86662948    -0.55500
C1461       C  0.82628123  0.19525521  0.77940256     0.77200
O1462       O  0.84251287  0.18744189  0.90329476    -0.56600
C1463       C  0.78771408  0.15075719  0.90227452     0.77100
C1464       C  0.84595067  0.13304402  0.81636157     0.79500
Cd1465     Cd  0.82119204  0.16796440  0.85003243     1.37500
O1466       O  0.80788089  0.18640649  0.78657719    -0.55500
O1467       O  0.82784093  0.13883922  0.80019460    -0.54300
C1468       C  0.82942775  0.20368550  0.90440641     0.79500
O1469       O  0.85191406  0.14250899  0.84992028    -0.56700
O1470       O  0.84179932  0.19056027  0.80436624    -0.55100
O1471       O  0.80787631  0.14820159  0.90995850    -0.55100
O1472       O  0.81302939  0.20301518  0.88011955    -0.54300
C1473       C  0.88416998  0.08533476  0.80161747     0.25900
C1474       C  0.88975626  0.08753497  0.75878638    -0.22200
C1475       C  0.87967023  0.10401420  0.73447114     0.20800
C1476       C  0.86473825  0.11840703  0.75302805     0.25900
C1477       C  0.85987252  0.11661608  0.79613978    -0.22100
C1478       C  0.86948822  0.09990270  0.82017013     0.20800
F1479       F  0.86475168  0.09778945  0.86173773    -0.12100
F1480       F  0.89369476  0.06973124  0.82615650    -0.14400
F1481       F  0.85595833  0.13483316  0.72945976    -0.14400
F1482       F  0.88441288  0.10634261  0.69293187    -0.12100
C1483       C  0.92306291  0.95828199  0.61657921     0.25900
C1484       C  0.92339489  0.96387542  0.57341256    -0.22200
C1485       C  0.91726531  0.98516181  0.56149603     0.20800
C1486       C  0.91419001  0.00122365  0.59212259     0.25900
C1487       C  0.91772384  0.99632190  0.63511295    -0.22100
C1488       C  0.92045613  0.97440665  0.64714134     0.20800
F1489       F  0.92257688  0.96875646  0.68836489    -0.12100
F1490       F  0.92742931  0.93759534  0.62962031    -0.14400
F1491       F  0.90968769  0.02192335  0.57925720    -0.14400
F1492       F  0.91572734  0.99083502  0.52019933    -0.12100
C1493       C  0.91305812  0.87908104  0.89043649     0.25900
C1494       C  0.91804816  0.87508110  0.93321344    -0.22200
C1495       C  0.90884904  0.85688927  0.95334712     0.20800
C1496       C  0.89422574  0.84358400  0.93155503     0.25900
C1497       C  0.88908035  0.84789875  0.88908446    -0.22100
C1498       C  0.89881723  0.86553141  0.86857140     0.20800
F1499       F  0.89382075  0.87019652  0.82780836    -0.12100
F1500       F  0.92205912  0.89611612  0.86953175    -0.14400
F1501       F  0.88519038  0.82634492  0.95180154    -0.14400
F1502       F  0.91347010  0.85264470  0.49443768    -0.12100
C1503       C  0.77664718  0.84096225  0.68615773     0.25900
C1504       C  0.75521519  0.83610071  0.69872533    -0.22200
C1505       C  0.75084291  0.83374123  0.74212305     0.20800
C1506       C  0.76785511  0.83384671  0.77163392     0.25900
C1507       C  0.78963684  0.83636568  0.75851674    -0.22100
C1508       C  0.79365681  0.84127906  0.71576025     0.20800
F1509       F  0.81429398  0.84478334  0.70182676    -0.12100
F1510       F  0.78141112  0.84428924  0.64489639    -0.14400
F1511       F  0.76306859  0.82988498  0.81268990    -0.14400
F1512       F  0.73033897  0.82947868  0.75597596    -0.12100
C1513       C  0.62959537  0.86916051  0.52277619     0.25900
C1514       C  0.63725055  0.88938220  0.00827167    -0.22200
C1515       C  0.65783362  0.89676535  0.02129400     0.20800
C1516       C  0.67117793  0.88353216  0.04686150     0.25900
C1517       C  0.66363640  0.86305226  0.56076127    -0.22100
C1518       C  0.64248730  0.85637683  0.54967352     0.20800
F1519       F  0.63465691  0.83693716  0.56314791    -0.12100
F1520       F  0.60934290  0.86216015  0.51212000    -0.14400
F1521       F  0.69144493  0.89050254  0.05742067    -0.14400
F1522       F  0.66525576  0.91644009  0.00822847    -0.12100
C1523       C  0.61534295  0.97346495  0.81717304     0.25900
C1524       C  0.61532819  0.97784785  0.86070278    -0.22200
C1525       C  0.61705128  0.99954807  0.87408821     0.20800
C1526       C  0.61579462  0.01662661  0.84482225     0.25900
C1527       C  0.61264302  0.01222953  0.80165594    -0.22100
C1528       C  0.61401869  0.99050322  0.78794371     0.20800
F1529       F  0.61218406  0.98554422  0.74645827    -0.12100
F1530       F  0.61433787  0.95270780  0.80274584    -0.14400
F1531       F  0.61587456  0.03740218  0.85930818    -0.14400
F1532       F  0.61848610  0.00431510  0.91572084    -0.12100
C1533       C  0.74897438  0.15103905  0.92819660     0.25900
C1534       C  0.77122338  0.14649098  0.93547489    -0.22200
C1535       C  0.77812414  0.14174596  0.97703727     0.20800
C1536       C  0.76332659  0.14446745  0.51052578     0.25900
C1537       C  0.74210437  0.15125141  0.00395455    -0.22100
C1538       C  0.73456276  0.15336210  0.96203964     0.20800
F1539       F  0.71363667  0.15956691  0.95360982    -0.12100
F1540       F  0.74138201  0.15483427  0.88858706    -0.14400
F1541       F  0.77104292  0.14136426  0.55025192    -0.14400
F1542       F  0.79925527  0.13631205  0.98550669    -0.12100
C1543       C  0.61884710  0.12733293  0.66529024     0.25900
C1544       C  0.62596672  0.10633694  0.67701031    -0.22200
C1545       C  0.64775770  0.10005324  0.66972696     0.20800
C1546       C  0.66240641  0.11478596  0.65219074     0.25900
C1547       C  0.65533778  0.13583979  0.64048128    -0.22100
C1548       C  0.63336860  0.14191647  0.64673494     0.20800
F1549       F  0.62608303  0.16217772  0.63610685    -0.12100
F1550       F  0.59769561  0.13354998  0.67087401    -0.14400
F1551       F  0.68348879  0.10837513  0.64640147    -0.14400
F1552       F  0.65501746  0.07978792  0.68045177    -0.12100
C1553       C  0.04165174  0.90757375  0.86104558     0.25900
C1554       C  0.04147417  0.92368834  0.82945661    -0.22200
C1555       C  0.02369892  0.93855328  0.82775019     0.20800
C1556       C  0.00708385  0.93786590  0.85797975     0.25900
C1557       C  0.00775834  0.92228014  0.89054156    -0.22100
C1558       C  0.02506270  0.90688798  0.89121495     0.20800
F1559       F  0.02643213  0.89144216  0.92189611    -0.12100
F1560       F  0.05820207  0.89272825  0.86361410    -0.14400
F1561       F  0.99037429  0.95253739  0.85531589    -0.14400
F1562       F  0.02234651  0.95394768  0.79696755    -0.12100
C1563       C  0.03988691  0.90815149  0.63272004     0.25900
C1564       C  0.05107237  0.92796746  0.63778707    -0.22200
C1565       C  0.04518136  0.94582777  0.61218397     0.20800
C1566       C  0.02779266  0.94421608  0.58368101     0.25900
C1567       C  0.01603201  0.92460973  0.57993939    -0.22100
C1568       C  0.02261662  0.90652499  0.60425442     0.20800
F1569       F  0.01220934  0.88717428  0.60103629    -0.12100
F1570       F  0.04528041  0.89023975  0.65593310    -0.14400
F1571       F  0.02233281  0.96205208  0.56032244    -0.14400
F1572       F  0.05594884  0.96500426  0.61511812    -0.12100
C1573       C  0.18043251  0.88697582  0.64680155     0.25900
C1574       C  0.17370934  0.86631618  0.63314979    -0.22200
C1575       C  0.15249139  0.85930655  0.64280229     0.20800
C1576       C  0.13859712  0.87223632  0.66721448     0.25900
C1577       C  0.14538182  0.89270643  0.68153617    -0.22100
C1578       C  0.16620701  0.90025713  0.67018623     0.20800
F1579       F  0.17297103  0.92023136  0.68258440    -0.12100
F1580       F  0.20068151  0.89434686  0.63723656    -0.14400
F1581       F  0.11823766  0.86491885  0.67605976    -0.14400
F1582       F  0.14545441  0.83948677  0.63004342    -0.12100
C1583       C  0.29021679  0.83507399  0.00875700     0.25900
C1584       C  0.26759504  0.83950226  0.49937109    -0.22200
C1585       C  0.26186160  0.84387566  0.95794558     0.20800
C1586       C  0.27666614  0.84067044  0.92503107     0.25900
C1587       C  0.29804207  0.83329217  0.93346155    -0.22100
C1588       C  0.30513024  0.83217749  0.97578057     0.20800
F1589       F  0.32601248  0.82633814  0.98550271    -0.12100
F1590       F  0.29687231  0.83246813  0.54833189    -0.14400
F1591       F  0.26956586  0.84333186  0.88476957    -0.14400
F1592       F  0.24096773  0.84958071  0.94807171    -0.12100
C1593       C  0.52451524  0.93240154  0.60181434     0.25900
C1594       C  0.51057495  0.91420595  0.60055570    -0.22200
C1595       C  0.51386525  0.89840674  0.56930067     0.20800
C1596       C  0.53019478  0.90107194  0.53917805     0.25900
C1597       C  0.54365665  0.91960837  0.53967405    -0.22100
C1598       C  0.54084161  0.93505668  0.57166704     0.20800
F1599       F  0.55448115  0.95235416  0.07588920    -0.12100
F1600       F  0.52232990  0.94787044  0.63198874    -0.14400
F1601       F  0.53234695  0.88567936  0.50883812    -0.14400
F1602       F  0.50104936  0.88050922  0.56721886    -0.12100
C1603       C  0.52008072  0.93355969  0.84890530     0.25900
C1604       C  0.53650222  0.91729339  0.85187576    -0.22200
C1605       C  0.53458160  0.89849694  0.82706823     0.20800
C1606       C  0.51716228  0.89639582  0.79883490     0.25900
C1607       C  0.50134268  0.91315885  0.79446103    -0.22100
C1608       C  0.50270561  0.93146350  0.82069470     0.20800
F1609       F  0.48749903  0.94769752  0.81853585    -0.12100
F1610       F  0.52094585  0.95187739  0.87263676    -0.14400
F1611       F  0.51615421  0.87806842  0.77515105    -0.14400
F1612       F  0.54969564  0.88219422  0.82955895    -0.12100
C1613       C  0.41339664  0.84454915  0.73919222     0.25900
C1614       C  0.40928894  0.86711649  0.73679265    -0.22200
C1615       C  0.39021497  0.87572343  0.75537240     0.20800
C1616       C  0.37585837  0.86216215  0.77689265     0.25900
C1617       C  0.38042304  0.83980467  0.78077850    -0.22100
C1618       C  0.39912095  0.83101839  0.76132909     0.20800
F1619       F  0.40332286  0.80927082  0.76307581    -0.12100
F1620       F  0.43152367  0.83566001  0.72131742    -0.14400
F1621       F  0.35781016  0.87103095  0.79509381    -0.14400
F1622       F  0.38543680  0.89734874  0.75286120    -0.12100
C1623       C  0.99191651  0.03735256  0.84620737     0.25900
C1624       C  0.98710967  0.05464250  0.81840613    -0.22200
C1625       C  0.99887397  0.07421588  0.82231548     0.20800
C1626       C  0.01571987  0.07601747  0.85185243     0.25900
C1627       C  0.02117314  0.05836129  0.87828340    -0.22100
C1628       C  0.00864325  0.03922086  0.87593721     0.20800
F1629       F  0.01265125  0.02206398  0.90210207    -0.12100
F1630       F  0.98072286  0.01839387  0.84429409    -0.14400
F1631       F  0.02704906  0.09490220  0.85364277    -0.14400
F1632       F  0.99460642  0.09154537  0.79675139    -0.12100
C1633       C  0.01356559  0.07213825  0.56647919     0.25900
C1634       C  0.02956719  0.05548915  0.56395227    -0.22200
C1635       C  0.02826012  0.03757777  0.59155345     0.20800
C1636       C  0.01137547  0.03637964  0.62104029     0.25900
C1637       C  0.99548357  0.05315835  0.62369316    -0.22100
C1638       C  0.99682571  0.07101596  0.59605396     0.20800
F1639       F  0.98172895  0.08736808  0.59699876    -0.12100
F1640       F  0.01368635  0.08944250  0.53967376    -0.14400
F1641       F  0.01059833  0.01864235  0.64671264    -0.14400
F1642       F  0.04321420  0.02110613  0.58999082    -0.12100
C1643       C  0.11922299  0.97622246  0.86886897     0.25900
C1644       C  0.11884308  0.98152255  0.82558091    -0.22200
C1645       C  0.11846801  0.00358721  0.81359998     0.20800
C1646       C  0.11555529  0.01980949  0.84382237     0.25900
C1647       C  0.11274448  0.01421849  0.88662645    -0.22100
C1648       C  0.11611347  0.99243572  0.89909738     0.20800
F1649       F  0.11459931  0.98648462  0.94022733    -0.12100
F1650       F  0.12037151  0.95516128  0.88203504    -0.14400
F1651       F  0.11355109  0.04078399  0.83044871    -0.14400
F1652       F  0.11915291  0.00943836  0.77232188    -0.12100
C1653       C  0.14025626  0.12312831  0.57035805     0.25900
C1654       C  0.15429808  0.13428956  0.54296202    -0.22200
C1655       C  0.15228383  0.13120762  0.49921839     0.20800
C1656       C  0.13631826  0.11739530  0.48315256     0.25900
C1657       C  0.12254054  0.10598791  0.51059463    -0.22100
C1658       C  0.12467719  0.10887601  0.55431729     0.20800
F1659       F  0.11141212  0.09817076  0.58151356    -0.12100
F1660       F  0.14195120  0.12561182  0.61270813    -0.14400
F1661       F  0.13458865  0.11449278  0.94085744    -0.14400
F1662       F  0.16532025  0.14185316  0.97153588    -0.12100
C1663       C  0.50027676  0.03574168  0.85121621     0.25900
C1664       C  0.49154081  0.05416667  0.87136730    -0.22200
C1665       C  0.49971455  0.07492446  0.86085646     0.20800
C1666       C  0.51661233  0.07707006  0.83156318     0.25900
C1667       C  0.52559191  0.05854742  0.81207411    -0.22100
C1668       C  0.51701696  0.03789513  0.82184515     0.20800
F1669       F  0.52527112  0.01951719  0.80401484    -0.12100
F1670       F  0.49323622  0.01543351  0.86098718    -0.14400
F1671       F  0.52405702  0.09728505  0.82217526    -0.14400
F1672       F  0.49146295  0.09322451  0.87898904    -0.12100
C1673       C  0.52497956  0.07549690  0.60390241     0.25900
C1674       C  0.53579722  0.05651020  0.61849666    -0.22200
C1675       C  0.52918269  0.03615317  0.60329008     0.20800
C1676       C  0.51164022  0.03472788  0.57532059     0.25900
C1677       C  0.50032935  0.05364873  0.56186434    -0.22100
C1678       C  0.50737061  0.07406141  0.57601065     0.20800
F1679       F  0.49732791  0.09269328  0.56271909    -0.12100
F1680       F  0.53128700  0.09553556  0.61685055    -0.14400
F1681       F  0.50517844  0.01491187  0.06191401    -0.14400
F1682       F  0.53903235  0.01746216  0.61681540    -0.12100
C1683       C  0.42096802  0.99918721  0.59580663     0.25900
C1684       C  0.42199618  0.99479772  0.55226782    -0.22200
C1685       C  0.42130782  0.97302441  0.53888906     0.20800
C1686       C  0.42240217  0.95602382  0.56834752     0.25900
C1687       C  0.42456717  0.96054818  0.61168975    -0.22100
C1688       C  0.42237036  0.98222154  0.62519537     0.20800
F1689       F  0.42316220  0.98720226  0.66679522    -0.12100
F1690       F  0.42066965  0.01997098  0.61026701    -0.14400
F1691       F  0.42330517  0.93523697  0.55397812    -0.14400
F1692       F  0.42108797  0.96853042  0.99715581    -0.12100
C1693       C  0.28787532  0.14442550  0.68985803     0.25900
C1694       C  0.28217872  0.14574054  0.73286155    -0.22200
C1695       C  0.25993350  0.14567934  0.74372319     0.20800
C1696       C  0.24383590  0.14685332  0.71241427     0.25900
C1697       C  0.24965940  0.14846719  0.66949188    -0.22100
C1698       C  0.27178279  0.14595643  0.65852331     0.20800
F1699       F  0.27805672  0.14636408  0.61753623    -0.12100
F1700       F  0.30913877  0.14349832  0.67780033    -0.14400
F1701       F  0.22261260  0.14823629  0.72459150    -0.14400
F1702       F  0.25367917  0.14588953  0.78472939    -0.12100
C1703       C  0.36928301  0.09548899  0.86569898     0.25900
C1704       C  0.36845256  0.11743925  0.87756151    -0.22200
C1705       C  0.37961041  0.12414739  0.91377433     0.20800
C1706       C  0.39237471  0.10936013  0.93687438     0.25900
C1707       C  0.39437291  0.08753191  0.92385150    -0.22100
C1708       C  0.38211961  0.08057780  0.88869678     0.20800
F1709       F  0.38286147  0.05948926  0.87597712    -0.12100
F1710       F  0.35798985  0.08859077  0.83149753    -0.14400
F1711       F  0.40332396  0.11667577  0.97117478    -0.14400
F1712       F  0.37844985  0.14523507  0.92636140    -0.12100
C1713       C  0.85191059  0.23908062  0.99149844     0.25900
C1714       C  0.83602020  0.25586134  0.49336909    -0.22200
C1715       C  0.81924615  0.25647745  0.96326549     0.20800
C1716       C  0.81755983  0.23994105  0.93336040     0.29100
C1717       C  0.83259913  0.22234624  0.93315410    -0.22100
C1718       C  0.85007252  0.22240579  0.96194070     0.20800
F1719       F  0.86513691  0.20600505  0.96242568    -0.12100
F1720       F  0.86877947  0.23807032  0.01932971    -0.14400
F1721       F  0.80085042  0.24104818  0.90518266    -0.14400
F1722       F  0.80425052  0.27294293  0.46272360    -0.12100
C1723       C  0.85299249  0.23678728  0.70820764     0.25900
C1724       C  0.83514237  0.24395031  0.68378681    -0.22200
C1725       C  0.81472604  0.23382252  0.68897423     0.20800
C1726       C  0.81195161  0.21770239  0.71939905     0.25900
C1727       C  0.82961461  0.21092605  0.74467738    -0.22100
C1728       C  0.85031819  0.22031179  0.73811043     0.20800
F1729       F  0.86798504  0.21401870  0.76128978    -0.12100
F1730       F  0.87298407  0.24593618  0.70381955    -0.14400
F1731       F  0.79171007  0.20931752  0.72491835    -0.14400
F1732       F  0.79706363  0.23994975  0.66562165    -0.12100
C1733       C  0.87501613  0.36834024  0.54763258     0.25900
C1734       C  0.88160607  0.34660529  0.55408155    -0.22200
C1735       C  0.90211613  0.33951038  0.53968311     0.20800
C1736       C  0.91572476  0.35383808  0.51826094     0.25900
C1737       C  0.90909455  0.37554720  0.51123184    -0.22100
C1738       C  0.88870611  0.38276739  0.52651527     0.20800
F1739       F  0.88182853  0.40365046  0.52038735    -0.12100
F1740       F  0.85541025  0.37563796  0.56213200    -0.14400
F1741       F  0.93556738  0.34653763  0.50509268    -0.14400
F1742       F  0.90865184  0.31846286  0.54492231    -0.12100
C1743       C  0.92050063  0.47412421  0.79716155     0.25900
C1744       C  0.91685909  0.49588169  0.80911759    -0.22200
C1745       C  0.91234591  0.50040764  0.85178168     0.20800
C1746       C  0.91481381  0.48416030  0.88241441     0.25900
C1747       C  0.92142605  0.46304537  0.87093672    -0.22100
C1748       C  0.92263573  0.45779419  0.82779022     0.20800
F1749       F  0.92799351  0.43732520  0.81515709    -0.12100
F1750       F  0.92386971  0.46889021  0.75616320    -0.14400
F1751       F  0.91231420  0.48954529  0.92357188    -0.14400
F1752       F  0.90771536  0.52099837  0.86467191    -0.12100
C1753       C  0.82048603  0.74264975  0.73374747     0.25900
C1754       C  0.83987443  0.75490285  0.73587903    -0.22200
C1755       C  0.85695155  0.75000988  0.70790023     0.20800
C1756       C  0.85484308  0.73307001  0.67891748     0.25900
C1757       C  0.83549642  0.72073139  0.67703394    -0.22100
C1758       C  0.81834919  0.72581320  0.70473111     0.20800
F1759       F  0.79933192  0.71460890  0.70375963    -0.12100
F1760       F  0.80329287  0.74702435  0.75944205    -0.14400
F1761       F  0.87177428  0.72897042  0.65245148    -0.14400
F1762       F  0.87574678  0.76157847  0.70843497    -0.12100
C1763       C  0.85693434  0.72713339  0.96604760     0.25900
C1764       C  0.83717311  0.72293208  0.48624623    -0.22200
C1765       C  0.81890851  0.73636019  0.47732936     0.20800
C1766       C  0.82029268  0.75341159  0.94843060     0.25900
C1767       C  0.84009210  0.75750182  0.92768280    -0.22100
C1768       C  0.85847972  0.74426214  0.93698898     0.20800
F1769       F  0.87803941  0.74791416  0.91825133    -0.12100
F1770       F  0.87500923  0.71487976  0.97467574    -0.14400
F1771       F  0.80207194  0.76546461  0.93989223    -0.14400
F1772       F  0.79928619  0.73279981  0.49591178    -0.12100
C1773       C  0.88809018  0.61250117  0.61438314     0.25900
C1774       C  0.87095667  0.62298402  0.63606947    -0.22200
C1775       C  0.86821767  0.61868218  0.67940632     0.20800
C1776       C  0.88204412  0.60399016  0.70039247     0.25900
C1777       C  0.89875611  0.59319048  0.67851814    -0.22100
C1778       C  0.90177330  0.59760144  0.63540268     0.20800
F1779       F  0.91838908  0.58794894  0.61390723    -0.12100
F1780       F  0.89155356  0.61652582  0.57284596    -0.14400
F1781       F  0.87880146  0.59996948  0.74199024    -0.14400
F1782       F  0.85245192  0.62908019  0.70189666    -0.12100
C1783       C  0.68854762  0.25203003  0.00626065     0.25900
C1784       C  0.70682924  0.23966665  0.01904992    -0.22200
C1785       C  0.72764381  0.24518818  0.00356113     0.20800
C1786       C  0.72993781  0.26196563  0.97409770     0.25900
C1787       C  0.71150655  0.27362472  0.95973282    -0.22100
C1788       C  0.69085007  0.26884552  0.97686219     0.20800
F1789       F  0.67273681  0.28015927  0.96450501    -0.12100
F1790       F  0.66839823  0.24777873  0.02195240    -0.14400
F1791       F  0.75000379  0.26575207  0.95758298    -0.14400
F1792       F  0.74542922  0.23387046  0.51523871    -0.12100
C1793       C  0.72371816  0.22627711  0.73166354     0.25900
C1794       C  0.70408816  0.22237090  0.71003943    -0.22200
C1795       C  0.68533657  0.23475063  0.72061041     0.20800
C1796       C  0.68661198  0.25169745  0.74969151     0.25900
C1797       C  0.70659662  0.25657316  0.76913786    -0.22100
C1798       C  0.72496551  0.24318492  0.76090484     0.20800
F1799       F  0.74452783  0.24701538  0.77960711    -0.12100
F1800       F  0.74203742  0.21446410  0.72314488    -0.14400
F1801       F  0.66829631  0.26350317  0.75833198    -0.14400
F1802       F  0.66574313  0.23091117  0.70202064    -0.12100
C1803       C  0.75805467  0.33623674  0.71705923     0.25900
C1804       C  0.76472649  0.33330635  0.75935111    -0.22200
C1805       C  0.78715780  0.33060140  0.76794334     0.20800
C1806       C  0.80221473  0.32873841  0.73497017     0.25900
C1807       C  0.79509491  0.32913801  0.69260948    -0.22100
C1808       C  0.77305460  0.33405672  0.68413427     0.20800
F1809       F  0.76567841  0.33559626  0.64385095    -0.12100
F1810       F  0.73670193  0.33961980  0.70708936    -0.14400
F1811       F  0.82352653  0.32491798  0.74478595    -0.14400
F1812       F  0.79447050  0.32833334  0.80816325    -0.12100
C1813       C  0.68031747  0.38673415  0.90195706     0.25900
C1814       C  0.67278302  0.36586906  0.89127126    -0.22200
C1815       C  0.65074837  0.36079349  0.89848858     0.20800
C1816       C  0.63645030  0.37627896  0.91544306     0.25900
C1817       C  0.64371582  0.39737920  0.92472970    -0.22100
C1818       C  0.66581485  0.40247489  0.91799068     0.20800
F1819       F  0.67339511  0.42262264  0.92715919    -0.12100
F1820       F  0.70155614  0.39208336  0.89583880    -0.14400
F1821       F  0.61519999  0.37084284  0.92114299    -0.14400
F1822       F  0.64304329  0.34064287  0.88972710    -0.12100
C1823       C  0.67643217  0.73335578  0.73801132     0.25900
C1824       C  0.69541564  0.72161286  0.75001696    -0.22200
C1825       C  0.71511686  0.72578273  0.72895991     0.20800
C1826       C  0.71632546  0.74277850  0.69968682     0.25900
C1827       C  0.69773470  0.75570310  0.69038295    -0.22100
C1828       C  0.67760402  0.75019300  0.70841797     0.20800
F1829       F  0.65906541  0.76132643  0.69797302    -0.12100
F1830       F  0.65674996  0.72902771  0.75570032    -0.14400
F1831       F  0.73603936  0.74726952  0.68229973    -0.14400
F1832       F  0.73354176  0.71418339  0.73814427    -0.12100
C1833       C  0.67735510  0.74755182  0.96232047     0.25900
C1834       C  0.69587073  0.73649867  0.94710064    -0.22200
C1835       C  0.71675295  0.74299092  0.96067493     0.20800
C1836       C  0.71907624  0.76008293  0.98914731     0.25900
C1837       C  0.70055799  0.77093809  0.00504339    -0.22100
C1838       C  0.67965154  0.76463596  0.99091982     0.20800
F1839       F  0.66130477  0.77481643  0.00510141    -0.12100
F1840       F  0.65701707  0.74190681  0.94942993    -0.14400
F1841       F  0.73944482  0.76525967  0.00259340    -0.14400
F1842       F  0.73499577  0.73212045  0.94792655    -0.12100
C1843       C  0.76012255  0.64455113  0.93735187     0.25900
C1844       C  0.73916984  0.65186122  0.94903796    -0.22200
C1845       C  0.73475398  0.65526315  0.99209709     0.20800
C1846       C  0.75151356  0.65374959  0.02210830     0.25900
C1847       C  0.77323520  0.64843644  0.50919051    -0.22100
C1848       C  0.77679895  0.64269594  0.96744871     0.20800
F1849       F  0.79704167  0.63655560  0.95434546    -0.12100
F1850       F  0.76483552  0.64033696  0.89641672    -0.14400
F1851       F  0.74702754  0.65821273  0.56236490    -0.14400
F1852       F  0.71465971  0.66206684  0.00491633    -0.12100
C1853       C  0.61724627  0.50541525  0.61241947     0.25900
C1854       C  0.61355298  0.52734650  0.60149388    -0.22200
C1855       C  0.61383794  0.53325507  0.55848975     0.20800
C1856       C  0.61431069  0.51720045  0.52728623     0.25900
C1857       C  0.61486432  0.49497984  0.53848348    -0.22100
C1858       C  0.61761822  0.48936085  0.58135591     0.20800
F1859       F  0.61900707  0.46820426  0.59381892    -0.12100
F1860       F  0.61893644  0.49925615  0.65344442    -0.14400
F1861       F  0.61248801  0.52344531  0.48633259    -0.14400
F1862       F  0.61182487  0.55443176  0.54638746    -0.12100
C1863       C  0.64059275  0.60268750  0.77338016     0.25900
C1864       C  0.62227523  0.61190364  0.75275742    -0.22200
C1865       C  0.61739629  0.63413376  0.75859798     0.20800
C1866       C  0.63032355  0.64674214  0.78528733     0.25900
C1867       C  0.64852782  0.63742960  0.80587707    -0.22100
C1868       C  0.65366829  0.61538632  0.79941869     0.20800
F1869       F  0.67136315  0.60610880  0.81848317    -0.12100
F1870       F  0.64615083  0.58142929  0.76773882    -0.14400
F1871       F  0.62563579  0.66829084  0.78953567    -0.14400
F1872       F  0.59999979  0.64363055  0.73894447    -0.12100
C1873       C  0.18705725  0.73964689  0.95373688     0.25900
C1874       C  0.20569670  0.72784817  0.94043634    -0.22200
C1875       C  0.22614839  0.73336088  0.45716178     0.20800
C1876       C  0.22804055  0.75072048  0.48525979     0.25900
C1877       C  0.20942891  0.76280470  0.49752234    -0.22100
C1878       C  0.18901718  0.75696356  0.98181212     0.20800
F1879       F  0.17070807  0.76794521  0.99381449    -0.12100
F1880       F  0.16682538  0.73464058  0.93928058    -0.14400
F1881       F  0.24826487  0.75625866  0.49901082    -0.14400
F1882       F  0.24455303  0.72263818  0.44491559    -0.12100
C1883       C  0.22529174  0.74632275  0.73871510     0.25900
C1884       C  0.20444224  0.73741650  0.74598931    -0.22200
C1885       C  0.18644192  0.74587774  0.72356290     0.20800
C1886       C  0.18917255  0.76288349  0.69470948     0.25900
C1887       C  0.21004420  0.77171711  0.68719027    -0.22100
C1888       C  0.22804024  0.76327402  0.70971581     0.20800
F1889       F  0.24845793  0.77095082  0.70290841    -0.12100
F1890       F  0.24329148  0.73826038  0.75874653    -0.14400
F1891       F  0.17124120  0.77048197  0.67382546    -0.14400
F1892       F  0.16613139  0.73768790  0.72933332    -0.12100
C1893       C  0.01650052  0.54204570  0.58770650     0.25900
C1894       C  0.02330680  0.56337822  0.57777302    -0.22200
C1895       C  0.01334685  0.58110335  0.59809436     0.20800
C1896       C  0.99745208  0.57759509  0.62872624     0.25900
C1897       C  0.99128327  0.55625706  0.63984403    -0.22100
C1898       C  0.00078785  0.53853442  0.61869944     0.20800
F1899       F  0.99543810  0.51774151  0.62884689    -0.12100
F1900       F  0.02570448  0.52449347  0.06885825    -0.14400
F1901       F  0.98796554  0.59519467  0.64721715    -0.14400
F1902       F  0.01879032  0.60188257  0.58810270    -0.12100
C1903       C  0.02568454  0.54156930  0.87159169     0.25900
C1904       C  0.02832181  0.56143043  0.89278188    -0.22200
C1905       C  0.01300083  0.57839043  0.88568731     0.20800
C1906       C  0.99577402  0.57572957  0.85747102     0.25900
C1907       C  0.99344996  0.55611540  0.83543278    -0.22100
C1908       C  0.00844695  0.53893461  0.84319418     0.20800
F1909       F  0.00645428  0.51945156  0.82352847    -0.12100
F1910       F  0.03959734  0.52454797  0.87856229    -0.14400
F1911       F  0.98157426  0.59259529  0.85138798    -0.14400
F1912       F  0.01457749  0.59774019  0.90596887    -0.12100
C1913       C  0.14298018  0.60826806  0.92840882     0.25900
C1914       C  0.12116476  0.61501018  0.93337336    -0.22200
C1915       C  0.11427107  0.63505820  0.91609765     0.20800
C1916       C  0.12904124  0.64808681  0.89381373     0.25900
C1917       C  0.15098907  0.64133208  0.88901634    -0.22100
C1918       C  0.15775731  0.62130766  0.90675192     0.20800
F1919       F  0.17871613  0.61414286  0.90285554    -0.12100
F1920       F  0.15012865  0.58908973  0.94522032    -0.14400
F1921       F  0.12196450  0.66745547  0.87776207    -0.14400
F1922       F  0.09312354  0.64170003  0.91966712    -0.12100
C1923       C  0.30898294  0.71671889  0.96732258     0.25900
C1924       C  0.32761553  0.70779964  0.98713026    -0.22200
C1925       C  0.34839470  0.71548152  0.97523670     0.20800
C1926       C  0.35039596  0.73231331  0.94573379     0.25900
C1927       C  0.33171484  0.74188537  0.92735835    -0.22100
C1928       C  0.31098547  0.73358002  0.93784528     0.20800
F1929       F  0.29245940  0.74222703  0.92072602    -0.12100
F1930       F  0.28845890  0.70998801  0.47755070    -0.14400
F1931       F  0.37069244  0.73926224  0.93534752    -0.14400
F1932       F  0.36692552  0.70692368  0.99247571    -0.12100
C1933       C  0.30974360  0.73006883  0.68925817     0.25900
C1934       C  0.32905828  0.71904604  0.67710252    -0.22200
C1935       C  0.34907044  0.72544160  0.69444323     0.20800
C1936       C  0.34977595  0.74216546  0.72398249     0.25900
C1937       C  0.33042661  0.75288789  0.73699756    -0.22100
C1938       C  0.31043164  0.74680577  0.71892134     0.20800
F1939       F  0.29140001  0.75636057  0.73116928    -0.12100
F1940       F  0.28997989  0.72407457  0.67384130    -0.14400
F1941       F  0.36952634  0.74759951  0.74021170    -0.14400
F1942       F  0.36804252  0.71549279  0.68294420    -0.12100
C1943       C  0.26626637  0.64806722  0.76047963     0.25900
C1944       C  0.24385227  0.64985394  0.75090506    -0.22200
C1945       C  0.23712535  0.64639475  0.70888741     0.20800
C1946       C  0.25254113  0.64350498  0.67678078     0.25900
C1947       C  0.27502802  0.64394796  0.68580005    -0.22100
C1948       C  0.28166263  0.64503367  0.72839987     0.20800
F1949       F  0.30317479  0.64496120  0.73901173    -0.12100
F1950       F  0.27355434  0.65084485  0.80051611    -0.14400
F1951       F  0.24539180  0.64159958  0.63646697    -0.14400
F1952       F  0.21565642  0.64732612  0.69809849    -0.12100
C1953       C  0.50068539  0.54207025  0.55881390     0.25900
C1954       C  0.49337525  0.55953145  0.53359573    -0.22200
C1955       C  0.50313607  0.58011839  0.53860405     0.20800
C1956       C  0.51969203  0.58313131  0.56842000     0.25900
C1957       C  0.52689703  0.56563789  0.59374011    -0.22100
C1958       C  0.51715656  0.54506312  0.58852134     0.20800
F1959       F  0.52370130  0.52752496  0.61173495    -0.12100
F1960       F  0.49225088  0.52183975  0.55429308    -0.14400
F1961       F  0.52864349  0.60317664  0.57231796    -0.14400
F1962       F  0.49623966  0.59747746  0.01561268    -0.12100
C1963       C  0.49598868  0.57686209  0.81539993     0.25900
C1964       C  0.49497253  0.55844731  0.84173282    -0.22200
C1965       C  0.51116540  0.54202753  0.83770913     0.20800
C1966       C  0.52807185  0.54415022  0.80852624     0.25900
C1967       C  0.52927583  0.56271649  0.78259631    -0.22100
C1968       C  0.51292577  0.57900135  0.78624215     0.20800
F1969       F  0.51308826  0.59704111  0.76133124    -0.12100
F1970       F  0.48062281  0.59291837  0.81776711    -0.14400
F1971       F  0.54326043  0.52794183  0.80584114    -0.14400
F1972       F  0.51074023  0.52373286  0.86191452    -0.12100
C1973       C  0.38967619  0.58464904  0.53911464     0.25900
C1974       C  0.39260208  0.58655724  0.99536042    -0.22200
C1975       C  0.38009625  0.60215058  0.97315417     0.20800
C1976       C  0.36518055  0.61550001  0.99438827     0.25900
C1977       C  0.36286131  0.61410695  0.53817875    -0.22100
C1978       C  0.37517592  0.59847432  0.56048464     0.20800
F1979       F  0.37314995  0.59659834  0.60292586    -0.12100
F1980       F  0.40148148  0.56979759  0.56167324    -0.14400
F1981       F  0.35377635  0.63081812  0.97222191    -0.14400
F1982       F  0.38240309  0.60461026  0.93087799    -0.12100
C1983       C  0.22343216  0.24499415  0.68139279     0.25900
C1984       C  0.20332038  0.23452143  0.67461920    -0.22200
C1985       C  0.18490640  0.24154200  0.69743833     0.20800
C1986       C  0.18669879  0.25830258  0.72691282     0.25900
C1987       C  0.20695084  0.26839716  0.73449640    -0.22100
C1988       C  0.22527844  0.26157904  0.71116075     0.20800
F1989       F  0.24521334  0.27039571  0.71803184    -0.12100
F1990       F  0.24167848  0.23886179  0.66002220    -0.14400
F1991       F  0.16847737  0.26440361  0.74837056    -0.14400
F1992       F  0.16515488  0.23214968  0.69149430    -0.12100
C1993       C  0.22212290  0.24475612  0.92862240     0.25900
C1994       C  0.20461934  0.25977707  0.92446223    -0.22200
C1995       C  0.18575281  0.25668514  0.94883935     0.20800
C1996       C  0.18467490  0.23940588  0.97760063     0.25900
C1997       C  0.20253709  0.22488549  0.98289482    -0.22100
C1998       C  0.22116936  0.22786558  0.45796989     0.20800
F1999       F  0.23856782  0.21408131  0.46163951    -0.12100
F2000       F  0.24061209  0.24684599  0.90543570    -0.14400
F2001       F  0.16621323  0.23725946  0.00084610    -0.14400
F2002       F  0.16840377  0.27055954  0.94549123    -0.12100
C2003       C  0.99924759  0.44138857  0.59062405     0.25900
C2004       C  0.99781115  0.42304151  0.56456638    -0.22200
C2005       C  0.01359108  0.40624044  0.56875887     0.20800
C2006       C  0.03113829  0.40838414  0.59643316     0.25900
C2007       C  0.03306644  0.42711334  0.62134024    -0.22100
C2008       C  0.01665308  0.44340216  0.61877466     0.20800
F2009       F  0.01756124  0.46159908  0.64284778    -0.12100
F2010       F  0.98404172  0.45762429  0.58848153    -0.14400
F2011       F  0.04646430  0.39224546  0.59798496    -0.14400
F2012       F  0.01259920  0.38792558  0.54502277    -0.12100
C2013       C  0.04218252  0.43928992  0.84710936     0.25900
C2014       C  0.04201833  0.42635991  0.81072901    -0.22200
C2015       C  0.02637022  0.40973361  0.80720573     0.20800
C2016       C  0.01064298  0.40680060  0.83843755     0.25900
C2017       C  0.01011432  0.42045029  0.87377974    -0.22100
C2018       C  0.02641166  0.43636212  0.87836584     0.20800
F2019       F  0.02706769  0.44923686  0.91300447    -0.12100
F2020       F  0.05761032  0.45478031  0.85253908    -0.14400
F2021       F  0.99530744  0.39122098  0.83297240    -0.14400
F2022       F  0.02564614  0.39675170  0.77272718    -0.12100
C2023       C  0.11571828  0.50524347  0.56383288     0.25900
C2024       C  0.10852698  0.52602354  0.57639187    -0.22200
C2025       C  0.10495027  0.52986251  0.61960372     0.20800
C2026       C  0.10578443  0.51264779  0.64863188     0.25900
C2027       C  0.11027419  0.49126322  0.63512821    -0.22100
C2028       C  0.11657927  0.48801710  0.59284304     0.20800
F2029       F  0.12205880  0.46787493  0.57860581    -0.12100
F2030       F  0.12053184  0.50121198  0.52284949    -0.14400
F2031       F  0.10041990  0.51672770  0.68932657    -0.14400
F2032       F  0.09859976  0.54983700  0.63345594    -0.12100
C2033       C  0.14002297  0.39206374  0.80100504     0.25900
C2034       C  0.13817487  0.39446831  0.75699257    -0.22200
C2035       C  0.15216143  0.38242434  0.73078475     0.20800
C2036       C  0.16781181  0.36827571  0.74815485     0.25900
C2037       C  0.16944803  0.36552745  0.79211086    -0.22100
C2038       C  0.15547123  0.37763404  0.81840480     0.20800
F2039       F  0.15680285  0.37556666  0.86094048    -0.12100
F2040       F  0.12628202  0.40300782  0.82717037    -0.14400
F2041       F  0.18078158  0.35659227  0.72178643    -0.14400
F2042       F  0.15072002  0.38438346  0.68824938    -0.12100
C2043       C  0.53736575  0.41630312  0.78936284     0.25900
C2044       C  0.52677128  0.43442175  0.77112036    -0.22200
C2045       C  0.53406793  0.45550984  0.78142804     0.20800
C2046       C  0.55005754  0.45836529  0.81250059     0.25900
C2047       C  0.55931723  0.44020064  0.83317458    -0.22100
C2048       C  0.55351816  0.41914928  0.81983745     0.20800
F2049       F  0.56276916  0.40113711  0.83770678    -0.12100
F2050       F  0.53156715  0.39572120  0.77895739    -0.14400
F2051       F  0.55520212  0.47890010  0.82444257    -0.14400
F2052       F  0.52480372  0.47349776  0.76350592    -0.12100
C2053       C  0.52233081  0.42043390  0.52895365     0.25900
C2054       C  0.53243899  0.44049303  0.52150216    -0.22200
C2055       C  0.52379179  0.45945757  0.54021843     0.20800
C2056       C  0.50668777  0.45802052  0.56920122     0.25900
C2057       C  0.49810387  0.43759806  0.57989238    -0.22100
C2058       C  0.50521423  0.41900851  0.55775255     0.20800
F2059       F  0.49636932  0.39919961  0.56568173    -0.12100
F2060       F  0.52947089  0.40208152  0.50937746    -0.14400
F2061       F  0.50003933  0.47628446  0.58965010    -0.14400
F2062       F  0.53302376  0.47907047  0.03332110    -0.12100
C2063       C  0.43106030  0.47493227  0.86931491     0.25900
C2064       C  0.42482558  0.49646752  0.85934967    -0.22200
C2065       C  0.41981942  0.50166796  0.81704932     0.20800
C2066       C  0.42398395  0.48666446  0.78500255     0.25900
C2067       C  0.43298357  0.46605336  0.79453368    -0.22100
C2068       C  0.43508709  0.45985065  0.83723959     0.20800
F2069       F  0.44260312  0.43971064  0.84815241    -0.12100
F2070       F  0.43481740  0.46884544  0.90988683    -0.14400
F2071       F  0.42052360  0.49292519  0.74443857    -0.14400
F2072       F  0.41266367  0.52191677  0.80598997    -0.12100
C2073       C  0.32360343  0.21925464  0.94884170     0.25900
C2074       C  0.34031351  0.21413515  0.92019594    -0.22200
C2075       C  0.36003407  0.22587868  0.92210015     0.20800
C2076       C  0.36269046  0.24185230  0.45214255     0.25900
C2077       C  0.34532964  0.24825663  0.47828840    -0.22100
C2078       C  0.32616587  0.23624046  0.97748005     0.20800
F2079       F  0.30832960  0.24199191  0.50125385    -0.12100
F2080       F  0.30458137  0.20805210  0.94895221    -0.14400
F2081       F  0.38205531  0.25244734  0.45315469    -0.14400
F2082       F  0.37687041  0.22124746  0.89572391    -0.12100
C2083       C  0.35950548  0.22636405  0.70602913     0.25900
C2084       C  0.33984396  0.22293693  0.72775975    -0.22200
C2085       C  0.32204415  0.23724136  0.71982340     0.20800
C2086       C  0.32382316  0.25424341  0.69042256     0.25900
C2087       C  0.34342190  0.25744628  0.66824562    -0.22100
C2088       C  0.36130842  0.24338232  0.67679883     0.20800
F2089       F  0.38065523  0.24585714  0.65657229    -0.12100
F2090       F  0.37712895  0.21319845  0.71287296    -0.14400
F2091       F  0.30607696  0.26716019  0.68290753    -0.14400
F2092       F  0.30261802  0.23454233  0.73967681    -0.12100
C2093       C  0.26038633  0.33559542  0.96257482     0.25900
C2094       C  0.26524076  0.33544884  0.91913051    -0.22200
C2095       C  0.28730085  0.33600448  0.90680832     0.20800
C2096       C  0.30404254  0.33466901  0.93705146     0.25900
C2097       C  0.29988741  0.33274370  0.47901670    -0.22100
C2098       C  0.27790485  0.33492368  0.49131298     0.20800
F2099       F  0.27226776  0.33425388  0.53262678    -0.12100
F2100       F  0.23937505  0.33534266  0.97623667    -0.14400
F2101       F  0.32506583  0.33391096  0.92349930    -0.14400
F2102       F  0.29273336  0.33672750  0.86539106    -0.12100
C2103       C  0.38571694  0.36851965  0.63512977     0.25900
C2104       C  0.39384710  0.34963377  0.61528802    -0.22200
C2105       C  0.41650109  0.34528613  0.61672841     0.20800
C2106       C  0.43062744  0.35947007  0.63773157     0.25900
C2107       C  0.42240476  0.37840287  0.65709973    -0.22100
C2108       C  0.39983164  0.38274145  0.65561911     0.20800
F2109       F  0.39134670  0.40081833  0.67420020    -0.12100
F2110       F  0.36406230  0.37354250  0.63411105    -0.14400
F2111       F  0.45243111  0.35511699  0.63769939    -0.14400
F2112       F  0.42500707  0.32722149  0.59820352    -0.12100
loop_ 
_geom_bond_atom_site_label_1 
_geom_bond_atom_site_label_2 
_geom_bond_distance 
_geom_bond_site_symmetry_2 
_ccdc_geom_bond_type 
O1            C4   1.272       .  A
O1           Cd6   2.472       .  S
C2           O11   1.266       .  A
C2            O7   1.273       .  A
C2         C1031   1.489       .  S
O3            C9   1.276       .  A
O3           Cd6   2.482       .  S
C4           O12   1.267       .  A
C4         C1041   1.492   1_554  S
C5           O10   1.272       .  A
C5            O8   1.267       .  A
C5         C1048   1.485       .  S
Cd6          O13   2.375       .  S
Cd6          O12   2.452       .  S
Cd6          O11   2.424       .  S
Cd6           O7   2.486       .  S
Cd6          O10   2.485       .  S
Cd6           O8   2.427       .  S
C9           O13   1.263       .  A
C9         C1021   1.482   1_554  S
O14          C17   1.273       .  A
O14         Cd19   2.458       .  S
C15          O24   1.264       .  A
C15          O20   1.273       .  A
C15        C1001   1.474       .  S
O16          C22   1.274       .  A
O16         Cd19   2.458       .  S
C17          O25   1.268       .  A
C17        C1011   1.486       .  S
C18          O23   1.271       .  A
C18          O21   1.267       .  A
C18        C1051   1.477       .  S
Cd19         O26   2.421       .  S
Cd19         O25   2.429       .  S
Cd19         O24   2.379       .  S
Cd19         O20   2.484       .  S
Cd19         O23   2.472       .  S
Cd19         O21   2.410       .  S
C22          O26   1.265       .  A
C22         C988   1.482       .  S
O27          C30   1.272       .  A
O27         Cd32   2.471       .  S
C28          O37   1.265       .  A
C28          O33   1.274       .  A
C28         C958   1.479       .  S
O29          C35   1.273       .  A
O29         Cd32   2.453       .  S
C30          O38   1.266       .  A
C30         C971   1.488       .  S
C31          O36   1.271       .  A
C31          O34   1.266       .  A
C31         C978   1.475       .  S
Cd32         O39   2.390       .  S
Cd32         O38   2.439       .  S
Cd32         O37   2.401       .  S
Cd32         O33   2.467       .  S
Cd32         O36   2.452       .  S
Cd32         O34   2.429       .  S
C35          O39   1.265       .  A
C35         C951   1.478       .  S
O40          C43   1.272       .  A
O40         Cd45   2.498       .  S
C41          O50   1.265       .  A
C41          O46   1.273       .  A
C41         C931   1.486       .  S
O42          C48   1.273       .  A
O42         Cd45   2.475       .  S
C43          O51   1.265       .  A
C43        C1038   1.490       .  S
C44          O49   1.269       .  A
C44          O47   1.267       .  A
C44         C981   1.479       .  S
Cd45         O52   2.393       .  S
Cd45         O51   2.424       .  S
Cd45         O50   2.417       .  S
Cd45         O46   2.482       .  S
Cd45         O49   2.465       .  S
Cd45         O47   2.445       .  S
C48          O52   1.264       .  A
C48         C938   1.482       .  S
O53          C56   1.273       .  A
O53         Cd58   2.463       .  S
C54          O63   1.266   1_554  A
C54          O59   1.274   1_554  A
C54         C898   1.481       .  S
O55          C61   1.275       .  A
O55         Cd58   2.473       .  S
C56          O64   1.267       .  A
C56        C1008   1.485       .  S
C57          O62   1.272       .  A
C57          O60   1.267       .  A
C57         C918   1.479       .  S
Cd58         O65   2.390       .  S
Cd58         O64   2.414       .  S
Cd58         O62   2.452       .  S
Cd58         O60   2.435       .  S
Cd58       O1119   2.409       .  S
Cd58       O1115   2.448       .  S
O59       Cd1114   2.448       .  S
C61          O65   1.264       .  A
C61         C908   1.483       .  S
O63       Cd1114   2.410       .  S
O66          C69   1.275       .  A
O66         Cd71   2.478       .  S
C67        O1132   1.267       .  A
C67        O1128   1.276       .  A
C67         C868   1.484       .  S
O68          C74   1.275       .  A
O68         Cd71   2.455       .  S
C69          O77   1.266       .  A
C69         C891   1.490       .  S
C70          O75   1.272       .  A
C70          O73   1.268       .  A
C70         C921   1.472       .  S
Cd71         O78   2.388       .  S
Cd71         O77   2.425       .  S
Cd71         O76   2.403       .  S
Cd71         O72   2.473       .  S
Cd71         O75   2.459       .  S
Cd71         O73   2.423       .  S
O72        C1123   1.276       .  A
C74          O78   1.265       .  A
C74         C878   1.476       .  S
O76        C1123   1.267       .  A
O79        C1138   1.273       .  A
O79         Cd84   2.444       .  S
C80          O89   1.265       .  A
C80          O85   1.274       .  A
C80         C848   1.478       .  S
O81          C87   1.277       .  A
O81       Cd1140   2.456   1_554  S
C82          O90   1.269       .  A
C82        O1135   1.273       .  A
C82         C968   1.483       .  S
C83          O88   1.272       .  A
C83          O86   1.267       .  A
C83         C858   1.473       .  S
Cd84         O89   2.375       .  S
Cd84         O85   2.460       .  S
Cd84         O88   2.476       .  S
Cd84         O86   2.402       .  S
Cd84       O1137   2.455       .  S
Cd84       O1147   2.365       .  S
Cd84       O1146   2.427       .  S
C87          O91   1.265       .  A
C87         C838   1.475       .  S
O90       Cd1140   2.428   1_554  S
O91       Cd1140   2.364   1_554  S
O92          C95   1.273       .  A
O92         Cd97   2.474       .  S
C93         O102   1.265       .  A
C93          O98   1.273       .  A
C93         C818   1.482       .  S
O94         C100   1.274       .  A
O94         Cd97   2.471       .  S
C95         O103   1.267       .  A
C95         C888   1.491       .  S
C96         O101   1.271       .  A
C96          O99   1.268       .  A
C96         C861   1.481       .  S
Cd97        O104   2.392       .  S
Cd97        O103   2.431       .  S
Cd97        O102   2.403       .  S
Cd97         O98   2.478       .  S
Cd97        O101   2.476       .  S
Cd97         O99   2.415       .  S
C100        O104   1.264       .  A
C100        C828   1.481       .  S
O105        C108   1.274       .  A
O105       Cd110   2.463       .  S
C106        O115   1.268       .  A
C106        O111   1.274       .  A
C106        C798   1.485       .  S
O107        C113   1.277       .  A
O107       Cd110   2.472       .  S
C108        O116   1.267       .  A
C108        C911   1.484       .  S
C109        O114   1.274       .  A
C109        O112   1.267       .  A
C109        C808   1.477       .  S
Cd110       O117   2.358       .  S
Cd110       O116   2.405       .  S
Cd110       O115   2.433       .  S
Cd110       O111   2.445       .  S
Cd110       O114   2.462       .  S
Cd110       O112   2.394       .  S
C113        O117   1.265       .  A
C113        C901   1.480       .  S
O118        C121   1.273       .  A
O118       Cd123   2.464       .  S
C119        O128   1.268       .  A
C119        O124   1.273       .  A
C119        C788   1.484       .  S
O120        C126   1.274       .  A
O120       Cd123   2.472       .  S
C121        O129   1.265       .  A
C121        C768   1.480       .  S
C122        O127   1.271       .  A
C122        O125   1.267       .  A
C122        C811   1.469       .  S
Cd123       O130   2.391       .  S
Cd123       O129   2.397       .  S
Cd123       O128   2.422       .  S
Cd123       O124   2.462       .  S
Cd123       O127   2.449       .  S
Cd123       O125   2.408       .  S
C126        O130   1.265       .  A
C126        C778   1.476       .  S
O131        C134   1.274       .  A
O131       Cd136   2.473       .  S
C132        O141   1.266       .  A
C132        O137   1.273       .  A
C132        C748   1.488       .  S
O133        C139   1.273       .  A
O133       Cd136   2.473       .  S
C134        O142   1.264       .  A
C134        C731   1.476       .  S
C135        O140   1.270       .  A
C135        O138   1.269       .  A
C135        C758   1.480       .  S
Cd136       O143   2.413       .  S
Cd136       O142   2.390       .  S
Cd136       O141   2.420       .  S
Cd136       O137   2.477       .  S
Cd136       O140   2.440       .  S
Cd136       O138   2.462       .  S
C139        O143   1.264       .  A
C139        C741   1.481       .  S
O144        C147   1.274       .  A
O144       Cd149   2.503       .  S
C145        O154   1.266       .  A
C145        O150   1.273       .  A
C145       C1857   1.487       .  S
O146        C152   1.271       .  A
O146       Cd149   2.456       .  S
C147        O155   1.262       .  A
C147        C991   1.480       .  S
C148        O153   1.269       .  A
C148        O151   1.268       .  A
C148        C761   1.479       .  S
Cd149       O156   2.427       .  S
Cd149       O155   2.375       .  S
Cd149       O154   2.420       .  S
Cd149       O150   2.476       .  S
Cd149       O153   2.442       .  S
Cd149       O151   2.466       .  S
C152        O156   1.264       .  A
C152       C2054   1.473       .  S
O157        C160   1.273       .  A
O157       Cd162   2.464       .  S
C158        O167   1.267       .  A
C158        O163   1.270       .  A
C158        C791   1.489       .  S
O159        C165   1.272       .  A
O159       Cd162   2.479       .  S
C160        O168   1.264       .  A
C160        C701   1.482       .  S
C161        O166   1.270       .  A
C161        O164   1.267       .  A
C161        C718   1.480       .  S
Cd162       O169   2.382       .  S
Cd162       O168   2.410       .  S
Cd162       O167   2.434       .  S
Cd162       O163   2.483       .  S
Cd162       O166   2.468       .  S
Cd162       O164   2.419       .  S
C165        O169   1.263       .  A
C165        C708   1.477   1_554  S
O170        C173   1.271       .  A
O170       Cd175   2.458       .  S
C171        O180   1.265       .  A
C171        O176   1.274       .  A
C171        C841   1.473       .  S
O172        C178   1.270       .  A
O172       Cd175   2.453       .  S
C173        O181   1.265       .  A
C173        C688   1.482       .  S
C174        O179   1.272       .  A
C174        O177   1.264       .  A
C174        C851   1.478       .  S
Cd175       O182   2.427       .  S
Cd175       O181   2.414       .  S
Cd175       O180   2.381       .  S
Cd175       O176   2.456       .  S
Cd175       O179   2.453       .  S
Cd175       O177   2.406       .  S
C178        O182   1.266       .  A
C178        C721   1.471       .  S
O183        C186   1.275       .  A
O183       Cd188   2.468       .  S
C184        O193   1.267       .  A
C184        O189   1.276       .  A
C184        C751   1.486       .  S
O185        C191   1.275       .  A
O185       Cd188   2.445       .  S
C186        O194   1.266       .  A
C186        C658   1.483   1_554  S
C187        O192   1.271       .  A
C187        O190   1.268       .  A
C187        C678   1.463       .  S
Cd188       O195   2.352       .  S
Cd188       O194   2.406       .  S
Cd188       O193   2.413       .  S
Cd188       O189   2.468       .  S
Cd188       O192   2.418       .  S
Cd188       O190   2.397       .  S
C191        O195   1.265       .  A
C191        C668   1.473       .  S
O196        C199   1.274       .  A
O196      Cd1257   2.459   1_554  S
C197        O206   1.267       .  A
C197        O202   1.273       .  A
C197        C691   1.479       .  S
O198        C204   1.274       .  A
O198       Cd201   2.453       .  S
C199        O207   1.265       .  A
C199        C948   1.477       .  S
C200        O203   1.267       .  A
C200       O1261   1.271       .  A
C200        C681   1.470   1_556  S
Cd201       O208   2.406       .  S
Cd201       O206   2.413       .  S
Cd201       O202   2.442       .  S
Cd201       O205   2.425       .  S
Cd201      O1252   2.458       .  S
Cd201      O1263   2.373       .  S
Cd201      O1259   2.409       .  S
O203      Cd1257   2.409       .  S
C204        O208   1.266       .  A
C204        C961   1.478   1_655  S
O205       C1256   1.271       .  A
O207      Cd1257   2.372   1_554  S
O209        C212   1.275       .  A
O209       Cd214   2.480       .  S
C210        O219   1.267       .  A
C210        O215   1.275       .  A
C210        C638   1.486       .  S
O211        C217   1.276       .  A
O211       Cd214   2.477       .  S
C212        O220   1.265       .  A
C212       C1018   1.484       .  S
C213        O218   1.272       .  A
C213        O216   1.267       .  A
C213        C648   1.468       .  S
Cd214       O221   2.429       .  S
Cd214       O220   2.388       .  S
Cd214       O219   2.417       .  S
Cd214       O215   2.467       .  S
Cd214       O218   2.464       .  S
Cd214       O216   2.441       .  S
C217        O221   1.266       .  A
C217       C1028   1.490       .  S
O222        C225   1.273       .  A
O222       Cd227   2.456       .  S
C223        O228   1.273       .  A
C223       O1288   1.266       .  A
C223       C1684   1.482   1_545  S
O224        C230   1.273       .  A
O224       Cd227   2.466       .  S
C225        O233   1.265       .  A
C225        C608   1.480       .  S
C226        O231   1.271       .  A
C226        O229   1.267       .  A
C226        C651   1.483       .  S
Cd227       O234   2.396       .  S
Cd227       O233   2.410       .  S
Cd227       O228   2.465       .  S
Cd227       O231   2.436       .  S
Cd227       O229   2.431       .  S
Cd227      O1288   2.407       .  S
C230        O234   1.265       .  A
C230       C1677   1.477       .  S
O232       C1279   1.266       .  A
O232      Cd1283   2.406   1_554  S
O235        C238   1.273       .  A
O235       Cd240   2.489       .  S
C236        O245   1.266       .  A
C236        O241   1.274       .  A
C236       C1997   1.483   1_554  S
O237        C243   1.270       .  A
O237       Cd240   2.450       .  S
C238        O246   1.265       .  A
C238        C641   1.487       .  S
C239        O244   1.273       .  A
C239        O242   1.265       .  A
C239        C928   1.484       .  S
Cd240       O247   2.432       .  S
Cd240       O246   2.417       .  S
Cd240       O245   2.406       .  S
Cd240       O241   2.463       .  S
Cd240       O244   2.478       .  S
Cd240       O242   2.401       .  S
C243        O247   1.267       .  A
C243        C598   1.474       .  S
O248        C251   1.274       .  A
O248      Cd1309   2.466   1_554  S
C249        O258   1.265       .  A
C249        O254   1.273       .  A
C249        C591   1.482       .  S
O250        C256   1.274       .  A
O250       Cd253   2.465       .  S
C251        O259   1.266       .  A
C251        C578   1.479       .  S
C252        O255   1.266   1_556  A
C252       O1313   1.270       .  A
C252        C601   1.471   1_556  S
Cd253       O260   2.391       .  S
Cd253       O258   2.409       .  S
Cd253       O254   2.462       .  S
Cd253       O257   2.450       .  S
Cd253      O1304   2.464       .  S
Cd253      O1315   2.381       .  S
Cd253      O1311   2.416       .  S
O255      Cd1309   2.418   1_554  S
C256        O260   1.265       .  A
C256        C571   1.480       .  S
O257       C1308   1.271       .  A
O259      Cd1309   2.380   1_554  S
O261        C264   1.273       .  A
O261       Cd266   2.458       .  S
C262        O271   1.266       .  A
C262        O267   1.272       .  A
C262        C631   1.482       .  S
O263        C269   1.274       .  A
O263       Cd266   2.460       .  S
C264        O272   1.265       .  A
C264        C551   1.482       .  S
C265        O270   1.272       .  A
C265        O268   1.266       .  A
C265        C558   1.475       .  S
Cd266       O273   2.385       .  S
Cd266       O272   2.407       .  S
Cd266       O271   2.427       .  S
Cd266       O267   2.455       .  S
Cd266       O270   2.462       .  S
Cd266       O268   2.386       .  S
C269        O273   1.264       .  A
C269        C538   1.478       .  S
O274        C277   1.275       .  A
O274       Cd279   2.454       .  S
C275        O284   1.265       .  A
C275        O280   1.276       .  A
C275        C881   1.481       .  S
O276        C282   1.272       .  A
O276       Cd279   2.446       .  S
C277        O285   1.269       .  A
C277        C531   1.486       .  S
C278        O283   1.276       .  A
C278        O281   1.267       .  A
C278        C871   1.482       .  S
Cd279       O286   2.419       .  S
Cd279       O285   2.422       .  S
Cd279       O284   2.368       .  S
Cd279       O280   2.481       .  S
Cd279       O283   2.457       .  S
Cd279       O281   2.399       .  S
C282        O286   1.268       .  A
C282        C561   1.470       .  S
O287        C290   1.274       .  A
O287       Cd292   2.477       .  S
C288        O297   1.268       .  A
C288        O293   1.273       .  A
C288        C588   1.481       .  S
O289        C295   1.275       .  A
O289       Cd292   2.479       .  S
C290        O298   1.264       .  A
C290        C508   1.481       .  S
C291        O296   1.271       .  A
C291        O294   1.267       .  A
C291        C521   1.476       .  S
Cd292       O299   2.421       .  S
Cd292       O298   2.369       .  S
Cd292       O297   2.422       .  S
Cd292       O293   2.441       .  S
Cd292       O296   2.447       .  S
Cd292       O294   2.450       .  S
C295        O299   1.265       .  A
C295        C498   1.487       .  S
O300        C303   1.274       .  A
O300       Cd305   2.484       .  S
C301        O310   1.266       .  A
C301        O306   1.274       .  A
C301        C528   1.487       .  S
O302        C308   1.273       .  A
O302       Cd305   2.460       .  S
C303        O311   1.264       .  A
C303        C831   1.483       .  S
C304        O309   1.270       .  A
C304        O307   1.269       .  A
C304        C518   1.477       .  S
Cd305       O312   2.415       .  S
Cd305       O311   2.392       .  S
Cd305       O310   2.406       .  S
Cd305       O306   2.484       .  S
Cd305       O309   2.443       .  S
Cd305       O307   2.457       .  S
C308        O312   1.265       .  A
C308        C821   1.477   1_554  S
O313        C316   1.275       .  A
O313       Cd318   2.474       .  S
C314        O323   1.267       .  A
C314        O319   1.275       .  A
C314       C1537   1.485       .  S
O315        C321   1.272       .  A
O315       Cd318   2.440       .  S
C316        O324   1.265       .  A
C316        C738   1.482       .  S
C317        O322   1.274       .  A
C317        O320   1.266       .  A
C317       C1784   1.476       .  S
Cd318       O325   2.403       .  S
Cd318       O324   2.386       .  S
Cd318       O323   2.403       .  S
Cd318       O319   2.480       .  S
Cd318       O322   2.456       .  S
Cd318       O320   2.391       .  S
C321        O325   1.268       .  A
C321        C491   1.472       .  S
O326        C329   1.272       .  A
O326       Cd331   2.447       .  S
C327        O336   1.264       .  A
C327        O332   1.272       .  A
C327        C618   1.477       .  S
O328        C334   1.273       .  A
O328       Cd331   2.479       .  S
C329        O337   1.267       .  A
C329        C471   1.483       .  S
C330        O335   1.270       .  A
C330        O333   1.266       .  A
C330        C488   1.469       .  S
Cd331       O338   2.386       .  S
Cd331       O337   2.429       .  S
Cd331       O336   2.403       .  S
Cd331       O332   2.457       .  S
Cd331       O335   2.441       .  S
Cd331       O333   2.413       .  S
C334        O338   1.264       .  A
C334        C611   1.479       .  S
O339        C342   1.275       .  A
O339      Cd1400   2.473       .  S
C340        O349   1.267       .  A
C340        O345   1.274       .  A
C340        C448   1.487       .  S
O341        C347   1.271       .  A
O341       Cd344   2.441       .  S
C342       O1406   1.264       .  A
C342        C781   1.480       .  S
C343        O348   1.274       .  A
C343        O346   1.265       .  A
C343        C771   1.477       .  S
Cd344       O351   2.436       .  S
Cd344       O350   2.395       .  S
Cd344       O349   2.425       .  S
Cd344       O345   2.477       .  S
Cd344       O348   2.454       .  S
Cd344       O346   2.403       .  S
Cd344      O1395   2.473       .  S
C347        O351   1.268       .  A
C347        C461   1.474       .  S
O350       C1398   1.264       .  A
O352        C355   1.275       .  A
O352      Cd1413   2.461   1_554  S
C353        O362   1.268       .  A
C353        O358   1.273       .  A
C353        C468   1.480       .  S
O354        C360   1.272       .  A
O354       Cd357   2.430       .  S
C355        O363   1.264   1_554  A
C355        C541   1.476       .  S
C356        O361   1.275       .  A
C356        O359   1.266       .  A
C356        C548   1.483       .  S
Cd357       O364   2.431       .  S
Cd357       O362   2.419       .  S
Cd357       O358   2.446       .  S
Cd357       O361   2.472       .  S
Cd357       O359   2.394       .  S
Cd357      O1408   2.460       .  S
Cd357      O1419   2.376       .  S
C360        O364   1.267       .  A
C360        C458   1.469       .  S
O363      Cd1413   2.376       .  S
O365        C368   1.274       .  A
O365      Cd1426   2.477   1_554  S
C366        O375   1.266       .  A
C366        O371   1.276       .  A
C366        C501   1.486   1_655  S
O367        C373   1.275       .  A
O367      Cd1426   2.455   1_554  S
C368        O376   1.267       .  A
C368        C428   1.485       .  S
C369        O374   1.274       .  A
C369        O372   1.267       .  A
C369        C438   1.481       .  S
Cd370       O375   2.401       .  S
Cd370       O371   2.478       .  S
Cd370       O374   2.486       .  S
Cd370       O372   2.396       .  S
Cd370      O1421   2.478       .  S
Cd370      O1423   2.455       .  S
Cd370      O1433   2.413       .  S
Cd370      O1432   2.421       .  S
C373        O377   1.266       .  A
C373        C511   1.483   1_655  S
O376      Cd1426   2.422   1_554  S
O377      Cd1426   2.412   1_554  S
O378        C381   1.270       .  A
O378       Cd383   2.463       .  S
C379        O388   1.267       .  A
C379        O384   1.273       .  A
C379        C711   1.478       .  S
O380        C386   1.275       .  A
O380       Cd383   2.488       .  S
C381        O389   1.266       .  A
C381        C451   1.487       .  S
C382        O387   1.272       .  A
C382        O385   1.265       .  A
C382        C441   1.471       .  S
Cd383       O390   2.375       .  S
Cd383       O389   2.440       .  S
Cd383       O388   2.423       .  S
Cd383       O384   2.429       .  S
Cd383       O387   2.471       .  S
Cd383       O385   2.421       .  S
C386        O390   1.262       .  A
C386        C698   1.482       .  S
O391        C394   1.274       .  A
O391       Cd396   2.459       .  S
C392        O401   1.265       .  A
C392        O397   1.274       .  A
C392        C568   1.482       .  S
O393        C399   1.273       .  A
O393       Cd396   2.442       .  S
C394        O402   1.266       .  A
C394        C431   1.483   1_545  S
C395        O400   1.271       .  A
C395        O398   1.267       .  A
C395        C418   1.474       .  S
Cd396       O403   2.406       .  S
Cd396       O402   2.409       .  S
Cd396       O401   2.407       .  S
Cd396       O397   2.463       .  S
Cd396       O400   2.445       .  S
Cd396       O398   2.408       .  S
C399        O403   1.265       .  A
C399        C581   1.479       .  S
O404        C407   1.273       .  A
O404       Cd409   2.478       .  S
C405        O414   1.266       .  A
C405        O410   1.275       .  A
C405        C671   1.475       .  S
O406        C412   1.273       .  A
O406       Cd409   2.457       .  S
C407        O415   1.265       .  A
C407        C478   1.485       .  S
C408        O413   1.270       .  A
C408        O411   1.267       .  A
C408        C421   1.465       .  S
Cd409       O416   2.408       .  S
Cd409       O415   2.400       .  S
Cd409       O414   2.376       .  S
Cd409       O410   2.440       .  S
Cd409       O413   2.432       .  S
Cd409       O411   2.427       .  S
C412        O416   1.265       .  A
C412        C661   1.482       .  S
C417        C418   1.409       .  A
C417        C422   1.395       .  A
C417        F424   1.358       .  S
C418        C419   1.406       .  A
C419        C420   1.398       .  A
C419        F426   1.358       .  S
C420        C421   1.405       .  A
C420        F425   1.358       .  S
C421        C422   1.400       .  A
C422        F423   1.358       .  S
C427        C428   1.412       .  A
C427        C432   1.398       .  A
C427        F434   1.358       .  S
C428        C429   1.406       .  A
C429        C430   1.400   1_565  A
C429        F436   1.358       .  S
C430        C431   1.412   1_545  A
C430        F435   1.358       .  S
C431        C432   1.405       .  A
C432        F433   1.358       .  S
C437        C438   1.411       .  A
C437        C442   1.396       .  A
C437        F444   1.358       .  S
C438        C439   1.407       .  A
C439        C440   1.401       .  A
C439       F1502   1.358       .  S
C440        C441   1.407       .  A
C440        F445   1.358       .  S
C441        C442   1.399       .  A
C442        F443   1.358       .  S
F446       C1495   1.358       .  S
C447        C448   1.406       .  A
C447        C452   1.401       .  A
C447        F454   1.358       .  S
C448        C449   1.411       .  A
C449        C450   1.399       .  A
C449        F456   1.358       .  S
C450        C451   1.407       .  A
C450        F455   1.358       .  S
C451        C452   1.412       .  A
C452        F453   1.358       .  S
C457        C462   1.395       .  A
C457       C1514   1.403       .  A
C457        F464   1.358       .  S
C458        C459   1.405       .  A
C458       C1513   1.403       .  A
C459        C460   1.401       .  A
C459        F466   1.358       .  S
C460       C1517   1.408       .  A
C460        F465   1.358       .  S
C461        C462   1.406       .  A
C461       C1516   1.408       .  A
C462        F463   1.358       .  S
C467        C468   1.409       .  A
C467        C472   1.397       .  A
C467        F474   1.358       .  S
C468        C469   1.405       .  A
C469        C470   1.399   1_565  A
C469        F476   1.358   1_565  S
C470        C471   1.411       .  A
C470        F475   1.358       .  S
C471        C472   1.407   1_545  A
C472        F473   1.358       .  S
C477        C478   1.405       .  A
C477        C482   1.399       .  A
C477        F484   1.358       .  S
C478        C479   1.413       .  A
C479       C1536   1.399       .  A
C479        F486   1.358       .  S
C480       C1535   1.399   1_554  A
C480       C1537   1.405       .  A
C480        F485   1.358       .  S
C481       C1370   1.485       .  S
C481        C482   1.412       .  A
C481       C1536   1.405       .  A
C482        F483   1.358       .  S
C487        C488   1.405       .  A
C487        C492   1.397       .  A
C487        F494   1.358       .  S
C488        C489   1.405       .  A
C489        C490   1.395       .  A
C489        F496   1.358       .  S
C490        C491   1.407       .  A
C490        F495   1.358       .  S
C491        C492   1.406       .  A
C492        F493   1.358       .  S
C497        C498   1.405       .  A
C497        C502   1.398       .  A
C497        F504   1.358       .  S
C498        C499   1.414       .  A
C499        C500   1.401       .  A
C499        F506   1.358       .  S
C500        C501   1.405       .  A
C500        F505   1.358   1_455  S
C501        C502   1.412       .  A
C502        F503   1.358       .  S
C507        C508   1.411       .  A
C507        C512   1.394       .  A
C507        F514   1.358       .  S
C508        C509   1.405       .  A
C509        C510   1.400       .  A
C509        F516   1.358       .  S
C510        C511   1.414       .  A
C510        F515   1.358       .  S
C511        C512   1.404       .  A
C512        F513   1.358       .  S
C517        C518   1.407       .  A
C517        C522   1.403       .  A
C517        F524   1.358       .  S
C518        C519   1.406       .  A
C519        C520   1.396       .  A
C519        F526   1.358       .  S
C520        C521   1.405       .  A
C520        F525   1.358       .  S
C521        C522   1.407       .  A
C522        F523   1.358       .  S
C527        C532   1.401       .  A
C527       C1584   1.407       .  A
C527       F1590   1.358       .  S
C528       C1583   1.407       .  A
C528       C1585   1.412   1_554  A
C529        C530   1.398       .  A
C529       C1584   1.412       .  A
C529        F536   1.358       .  S
C530        C531   1.405       .  A
C530        F535   1.358       .  S
C531        C532   1.412       .  A
C532        F533   1.358       .  S
F534       C1583   1.358       .  S
C537        C538   1.413       .  A
C537        C542   1.395       .  A
C537        F544   1.358       .  S
C538        C539   1.404       .  A
C539        C540   1.395       .  A
C539        F546   1.358       .  S
C540        C541   1.411       .  A
C540        F545   1.358       .  S
C541        C542   1.403       .  A
C542       F1599   1.358       .  S
F543       C1598   1.358       .  S
C547        C548   1.412       .  A
C547        C552   1.396       .  A
C547        F554   1.358       .  S
C548        C549   1.406       .  A
C549        C550   1.398       .  A
C549        F556   1.358       .  S
C550        C551   1.412       .  A
C550        F555   1.358       .  S
C551        C552   1.405       .  A
C552        F553   1.358       .  S
C557        C558   1.407       .  A
C557        C562   1.400       .  A
C557        F564   1.358       .  S
C558        C559   1.408       .  A
C559        C560   1.394       .  A
C559        F566   1.358       .  S
C560        C561   1.403       .  A
C560        F565   1.358       .  S
C561        C562   1.406       .  A
C562        F563   1.358       .  S
C567        C568   1.405       .  A
C567        C572   1.396   1_655  A
C567        F574   1.358       .  S
C568        C569   1.413       .  A
C569        C570   1.397   1_655  A
C569        F576   1.358       .  S
C570        C571   1.404       .  A
C570        F575   1.358       .  S
C571        C572   1.411       .  A
C572        F573   1.358       .  S
C577        C578   1.411       .  A
C577        C582   1.393   1_455  A
C577        F584   1.358       .  S
C578        C579   1.406       .  A
C579        C580   1.398       .  A
C579        F586   1.358       .  S
C580        C581   1.412   1_455  A
C580        F585   1.358       .  S
C581        C582   1.404       .  A
C582        F583   1.358       .  S
C587        C588   1.411       .  A
C587        C592   1.398       .  A
C587        F594   1.358       .  S
C588        C589   1.405   1_565  A
C589        C590   1.397       .  A
C589        F596   1.358       .  S
C590        C591   1.411       .  A
C590        F595   1.358       .  S
C591        C592   1.406   1_545  A
C592        F593   1.358       .  S
C597        C598   1.405       .  A
C597        C602   1.397       .  A
C597        F604   1.358       .  S
C598        C599   1.408   1_554  A
C599        C600   1.398       .  A
C599       F1662   1.358       .  S
C600        C601   1.404   1_556  A
C600       F1661   1.358       .  S
C601        C602   1.406       .  A
C602        F603   1.358       .  S
F605       C1656   1.358       .  S
F606       C1655   1.358       .  S
C607        C608   1.404       .  A
C607        C612   1.394       .  A
C607        F614   1.358       .  S
C608        C609   1.412       .  A
C609        C610   1.399       .  A
C609        F616   1.358       .  S
C610        C611   1.405       .  A
C610        F615   1.358       .  S
C611        C612   1.410       .  A
C612        F613   1.358       .  S
C617        C618   1.410       .  A
C617        C622   1.397       .  A
C617        F624   1.358       .  S
C618        C619   1.405       .  A
C619        C620   1.395       .  A
C619        F626   1.358       .  S
C620        C621   1.410       .  A
C620       F1681   1.358       .  S
C621       C1286   1.477       .  S
C621        C622   1.405       .  A
C622        F623   1.358       .  S
F625       C1676   1.358       .  S
C627        C628   1.411       .  A
C627        C632   1.397       .  A
C627        F634   1.358   1_565  S
C628       C1279   1.482   1_565  S
C628        C629   1.405       .  A
C629        C630   1.399       .  A
C629       F1692   1.358   1_554  S
C630        C631   1.411       .  A
C630        F635   1.358       .  S
C631        C632   1.405       .  A
C632        F633   1.358       .  S
F636       C1685   1.358       .  S
C637        C638   1.412       .  A
C637        C642   1.401       .  A
C637        F644   1.358       .  S
C638        C639   1.405       .  A
C639        C640   1.399       .  A
C639        F646   1.358       .  S
C640        C641   1.413       .  A
C640        F645   1.358       .  S
C641        C642   1.406       .  A
C642        F643   1.358       .  S
C647        C648   1.401       .  A
C647        C652   1.402       .  A
C647        F654   1.357       .  S
C648        C649   1.402       .  A
C649        C650   1.396       .  A
C649        F656   1.358       .  S
C650        C651   1.408       .  A
C650        F655   1.358       .  S
C651        C652   1.413       .  A
C652        F653   1.358       .  S
C657        C662   1.397       .  A
C657       C1714   1.413       .  A
C657        F664   1.358       .  S
C658       C1713   1.413       .  A
C658       C1715   1.405       .  A
C659        C660   1.398       .  A
C659       C1714   1.405       .  A
C659       F1722   1.358       .  S
C660        C661   1.412       .  A
C660        F665   1.358       .  S
C661        C662   1.405       .  A
C662        F663   1.358       .  S
F666       C1715   1.358       .  S
C667        C668   1.404       .  A
C667        C672   1.395       .  A
C667        F674   1.358       .  S
C668        C669   1.410       .  A
C669        C670   1.391       .  A
C669        F676   1.358       .  S
C670        C671   1.403       .  A
C670        F675   1.357       .  S
C671        C672   1.412       .  A
C672        F673   1.358       .  S
C677        C678   1.404       .  A
C677        C682   1.395       .  A
C677        F684   1.359       .  S
C678        C679   1.403       .  A
C679        C680   1.393       .  A
C679        F686   1.358       .  S
C680        C681   1.406       .  A
C680        F685   1.358       .  S
C681        C682   1.408       .  A
C682        F683   1.358       .  S
C687        C688   1.406       .  A
C687        C692   1.398       .  A
C687        F694   1.358       .  S
C688        C689   1.411       .  A
C689        C690   1.396       .  A
C689        F696   1.358       .  S
C690        C691   1.404       .  A
C690        F695   1.358       .  S
C691        C692   1.411       .  A
C692        F693   1.358       .  S
C697        C698   1.413       .  A
C697        C702   1.395       .  A
C697        F704   1.358       .  S
C698        C699   1.404       .  A
C699        C700   1.399       .  A
C699        F706   1.358       .  S
C700        C701   1.413       .  A
C700        F705   1.358       .  S
C701        C702   1.404       .  A
C702        F703   1.358       .  S
C707        C712   1.400       .  A
C707       C1764   1.405       .  A
C707        F714   1.358       .  S
C708        C709   1.410       .  A
C708       C1763   1.405       .  A
C709       C1766   1.392       .  A
C709        F716   1.358       .  S
C710        C711   1.405       .  A
C710       C1765   1.392       .  A
C710        F715   1.358       .  S
C711        C712   1.411       .  A
C712        F713   1.358       .  S
C717        C718   1.408       .  A
C717        C722   1.400       .  A
C717        F724   1.358       .  S
C718        C719   1.410       .  A
C719        C720   1.396       .  A
C719        F726   1.358       .  S
C720        C721   1.401       .  A
C720        F725   1.358       .  S
C721        C722   1.407       .  A
C722        F723   1.359       .  S
C727        C728   1.404       .  A
C727        C732   1.397       .  A
C727        F734   1.358       .  S
C728       C1373   1.476       .  S
C728        C729   1.410       .  A
C729        C730   1.396       .  A
C729       F1792   1.358       .  S
C730        C731   1.404       .  A
C730        F735   1.358       .  S
C731        C732   1.410       .  A
C732        F733   1.358       .  S
F736       C1785   1.358       .  S
C737        C738   1.405       .  A
C737        C742   1.398       .  A
C737        F744   1.357       .  S
C738        C739   1.412       .  A
C739        C740   1.397       .  A
C739        F746   1.358       .  S
C740        C741   1.404       .  A
C740        F745   1.358       .  S
C741        C742   1.411       .  A
C742        F743   1.358       .  S
C747        C748   1.413       .  A
C747        C752   1.399       .  A
C747        F754   1.357       .  S
C748        C749   1.407       .  A
C749        C750   1.400       .  A
C749        F756   1.358       .  S
C750        C751   1.413       .  A
C750        F755   1.358       .  S
C751        C752   1.404       .  A
C752        F753   1.358       .  S
C757        C758   1.408       .  A
C757        C762   1.404       .  A
C757        F764   1.358       .  S
C758        C759   1.406       .  A
C759        C760   1.396       .  A
C759        F766   1.358       .  S
C760        C761   1.406       .  A
C760        F765   1.358       .  S
C761        C762   1.408       .  A
C762        F763   1.358       .  S
C767        C768   1.412       .  A
C767        C772   1.396       .  A
C767        F774   1.358       .  S
C768        C769   1.405       .  A
C769        C770   1.396       .  A
C769        F776   1.358       .  S
C770        C771   1.410       .  A
C770        F775   1.358       .  S
C771        C772   1.403       .  A
C772        F773   1.358       .  S
C777        C778   1.403       .  A
C777        C782   1.398       .  A
C777        F784   1.358       .  S
C778        C779   1.409       .  A
C779        C780   1.396       .  A
C779        F786   1.358       .  S
C780        C781   1.405       .  A
C780        F785   1.358       .  S
C781        C782   1.413       .  A
C782        F783   1.358       .  S
C787        C788   1.405       .  A
C787        C792   1.400       .  A
C787        F794   1.357       .  S
C788        C789   1.410       .  A
C789        C790   1.400       .  A
C789        F796   1.359       .  S
C790       C1847   1.408       .  A
C790       F1851   1.358       .  S
C791       C1846   1.408       .  A
C791       C1848   1.411   1_554  A
C792       C1847   1.411       .  A
C792        F793   1.358       .  S
F795       C1846   1.358       .  S
C797        C798   1.405       .  A
C797        C802   1.398       .  A
C797        F804   1.358       .  S
C798        C799   1.411       .  A
C799        C800   1.401       .  A
C799        F806   1.358       .  S
C800        C801   1.408       .  A
C800        F805   1.358   1_554  S
C801       C1201   1.487       .  S
C801        C802   1.412       .  A
C802        F803   1.358       .  S
C807        C808   1.409       .  A
C807        C812   1.395       .  A
C807        F814   1.358       .  S
C808        C809   1.407       .  A
C809        C810   1.399       .  A
C809        F816   1.358       .  S
C810        C811   1.405       .  A
C810        F815   1.358       .  S
C811        C812   1.402       .  A
C812        F813   1.358       .  S
C817        C818   1.412       .  A
C817        C822   1.397       .  A
C817        F824   1.358       .  S
C818       C1875   1.406       .  A
C819        C820   1.399       .  A
C819       C1874   1.406       .  A
C819        F826   1.357       .  S
C820        C821   1.410       .  A
C820        F825   1.358       .  S
C821       C1878   1.403       .  A
C822       C1877   1.403       .  A
C822        F823   1.358       .  S
C827        C828   1.412       .  A
C827        C832   1.398       .  A
C827        F834   1.358       .  S
C828        C829   1.404       .  A
C829        C830   1.397       .  A
C829        F836   1.358       .  S
C830        C831   1.413       .  A
C830        F835   1.358       .  S
C831        C832   1.405       .  A
C832        F833   1.357       .  S
C837        C838   1.412       .  A
C837        C842   1.395       .  A
C837       F1900   1.358       .  S
C838        C839   1.402       .  A
C839        C840   1.395   1_455  A
C839        F846   1.358       .  S
C840        C841   1.410       .  A
C840        F845   1.358       .  S
C841        C842   1.403   1_655  A
C842        F843   1.358   1_455  S
F844       C1893   1.358       .  S
C847        C848   1.406       .  A
C847        C852   1.397       .  A
C847        F854   1.358       .  S
C848        C849   1.411       .  A
C849        C850   1.393   1_455  A
C849        F856   1.358       .  S
C850        C851   1.404       .  A
C850        F855   1.358       .  S
C851        C852   1.411   1_655  A
C852        F853   1.358       .  S
C857        C858   1.403       .  A
C857        C862   1.394       .  A
C857        F864   1.358       .  S
C858        C859   1.405       .  A
C859        C860   1.403       .  A
C859        F866   1.358       .  S
C860        C861   1.410       .  A
C860        F865   1.358       .  S
C861        C862   1.408       .  A
C862        F863   1.358       .  S
C867        C868   1.406       .  A
C867        C872   1.399       .  A
C867       F1930   1.357       .  S
C868        C869   1.412       .  A
C869        C870   1.398       .  A
C869        F876   1.358       .  S
C870        C871   1.404       .  A
C870        F875   1.358       .  S
C871        C872   1.412       .  A
C872        F873   1.358       .  S
F874       C1923   1.357       .  S
C877        C878   1.411       .  A
C877        C882   1.398       .  A
C877        F884   1.358       .  S
C878        C879   1.402       .  A
C879        C880   1.395       .  A
C879        F886   1.358       .  S
C880        C881   1.413       .  A
C880        F885   1.358       .  S
C881        C882   1.405       .  A
C882        F883   1.357       .  S
C887        C888   1.407       .  A
C887        C892   1.401       .  A
C887        F894   1.358       .  S
C888        C889   1.413       .  A
C889        C890   1.401       .  A
C889        F896   1.357       .  S
C890        C891   1.405       .  A
C890        F895   1.358       .  S
C891        C892   1.413       .  A
C892        F893   1.358       .  S
C897        C898   1.404       .  A
C897        C902   1.393       .  A
C897        F904   1.358       .  S
C898        C899   1.413       .  A
C899        C900   1.399       .  A
C899       F1962   1.358       .  S
C900        C901   1.405       .  A
C900        F905   1.358       .  S
C901        C902   1.412       .  A
C902        F903   1.358       .  S
F906       C1955   1.358       .  S
C907        C908   1.405       .  A
C907        C912   1.398       .  A
C907        F914   1.358       .  S
C908        C909   1.413       .  A
C909        C910   1.397       .  A
C909        F916   1.358       .  S
C910        C911   1.405       .  A
C910        F915   1.358       .  S
C911        C912   1.412       .  A
C912        F913   1.358       .  S
C917        C922   1.400       .  A
C917       C1974   1.411   1_554  A
C917        F924   1.358       .  S
C918        C919   1.405       .  A
C918       C1973   1.411       .  A
C919        C920   1.397       .  A
C919        F926   1.358       .  S
C920       C1977   1.406       .  A
C920        F925   1.358       .  S
C921        C922   1.402       .  A
C921       C1976   1.406   1_554  A
C922        F923   1.358       .  S
C927        C928   1.412       .  A
C927        C932   1.398       .  A
C927        F934   1.358       .  S
C928        C929   1.406       .  A
C929        C930   1.399       .  A
C929        F936   1.358       .  S
C930        C931   1.413       .  A
C930        F935   1.358       .  S
C931        C932   1.406       .  A
C932        F933   1.357       .  S
C937        C938   1.412       .  A
C937       C1998   1.396       .  A
C937        F944   1.358       .  S
C938        C939   1.405       .  A
C939        C940   1.398       .  A
C939        F946   1.358       .  S
C940        C941   1.413       .  A
C940        F945   1.358       .  S
C941       C1292   1.483       .  S
C941       C1998   1.405       .  A
C942       C1993   1.396       .  A
C942       C1997   1.405       .  A
C942        F943   1.358       .  S
C947        C948   1.404       .  A
C947        C952   1.396   1_655  A
C947        F954   1.358       .  S
C948        C949   1.411   1_655  A
C949        C950   1.393       .  A
C949        F956   1.358       .  S
C950        C951   1.404       .  A
C950        F955   1.358       .  S
C951        C952   1.412       .  A
C952        F953   1.358       .  S
C957        C958   1.405       .  A
C957        C962   1.398       .  A
C957        F964   1.358       .  S
C958        C959   1.411       .  A
C959        C960   1.396       .  A
C959        F966   1.358       .  S
C960        C961   1.404       .  A
C960        F965   1.358   1_455  S
C961        C962   1.411       .  A
C962        F963   1.358       .  S
C967        C968   1.405       .  A
C967        C972   1.399       .  A
C967        F974   1.358       .  S
C968        C969   1.410       .  A
C969        C970   1.399       .  A
C969        F976   1.358       .  S
C970        C971   1.408       .  A
C970        F975   1.358       .  S
C971        C972   1.412       .  A
C972        F973   1.358       .  S
C977        C978   1.409       .  A
C977        C982   1.400       .  A
C977        F984   1.359       .  S
C978        C979   1.403       .  A
C979        C980   1.397       .  A
C979        F986   1.358       .  S
C980        C981   1.408       .  A
C980        F985   1.357       .  S
C981        C982   1.406       .  A
C982        F983   1.358       .  S
C987        C988   1.404       .  A
C987        C992   1.394       .  A
C987        F994   1.358       .  S
C988        C989   1.413       .  A
C989        C990   1.401       .  A
C989        F996   1.358       .  S
C990        C991   1.405       .  A
C990        F995   1.358       .  S
C991        C992   1.410       .  A
C992        F993   1.358       .  S
C997        C998   1.403       .  A
C997       C1002   1.395       .  A
C997       F1004   1.358       .  S
C998       C1208   1.473   1_554  S
C998        C999   1.409       .  A
C999       C1000   1.398       .  A
C999       F2062   1.358       .  S
C1000      C1001   1.404       .  A
C1000      F1005   1.358       .  S
C1001      C1002   1.409       .  A
C1002      F1003   1.359       .  S
F1006      C2055   1.358       .  S
C1007      C1008   1.406       .  A
C1007      C1012   1.400       .  A
C1007      F1014   1.358       .  S
C1008      C1009   1.411       .  A
C1009      C1010   1.398       .  A
C1009      F1016   1.358       .  S
C1010      C1011   1.406       .  A
C1010      F1015   1.358       .  S
C1011      C1012   1.412       .  A
C1012      F1013   1.358       .  S
C1017      C1018   1.405       .  A
C1017      C1022   1.397       .  A
C1017      F1024   1.358       .  S
C1018      C1019   1.413       .  A
C1019      C2076   1.397       .  A
C1019      F1026   1.358       .  S
C1020      C1021   1.404       .  A
C1020      C2075   1.397       .  A
C1020      F1025   1.358       .  S
C1021      C2078   1.413       .  A
C1022      C2077   1.413       .  A
C1022      F2079   1.358       .  S
F1023      C2078   1.358   1_554  S
C1027      C1028   1.406       .  A
C1027      C1032   1.400       .  A
C1027      F1034   1.358       .  S
C1028      C1029   1.413       .  A
C1029      C1030   1.402       .  A
C1029      F1036   1.358       .  S
C1030      C1031   1.407       .  A
C1030      F1035   1.358       .  S
C1031      C1032   1.412       .  A
C1032      F1033   1.358       .  S
C1037      C1038   1.412       .  A
C1037      C2098   1.399       .  A
C1037      F1044   1.358       .  S
C1038      C1039   1.407       .  A
C1039      C1040   1.404       .  A
C1039      F1046   1.358       .  S
C1040      C2097   1.413       .  A
C1040      F1045   1.358       .  S
C1041      C1042   1.407       .  A
C1041      C2096   1.413       .  A
C1042      C2093   1.399       .  A
C1042      F1043   1.358   1_556  S
C1047      C1048   1.409       .  A
C1047      C1052   1.396       .  A
C1047      F1054   1.358       .  S
C1048      C1049   1.410       .  A
C1049      C1050   1.402       .  A
C1049      F1056   1.357       .  S
C1050      C1051   1.406       .  A
C1050      F1055   1.358       .  S
C1051      C1052   1.405       .  A
C1052      F1053   1.358       .  S
O1057      C1060   1.272       .  A
O1057     Cd1062   2.471       .  S
C1058      O1067   1.266       .  A
C1058      O1063   1.274       .  A
C1058      C2087   1.489       .  S
O1059      C1065   1.276       .  A
O1059     Cd1062   2.482       .  S
C1060      O1068   1.268       .  A
C1060      C2097   1.492       .  S
C1061      O1066   1.272       .  A
C1061      O1064   1.267       .  A
C1061      C2104   1.485       .  S
Cd1062     O1069   2.377       .  S
Cd1062     O1068   2.451       .  S
Cd1062     O1067   2.421       .  S
Cd1062     O1063   2.488       .  S
Cd1062     O1066   2.487       .  S
Cd1062     O1064   2.426       .  S
C1065      O1069   1.264       .  A
C1065      C2077   1.483       .  S
O1070      C1073   1.273       .  A
O1070     Cd1075   2.457       .  S
C1071      O1080   1.264       .  A
C1071      O1076   1.273       .  A
C1071      C2057   1.474       .  S
O1072      C1078   1.274       .  A
O1072     Cd1075   2.458       .  S
C1073      O1081   1.268       .  A
C1073      C2067   1.486       .  S
C1074      O1079   1.272       .  A
C1074      O1077   1.267       .  A
C1074      C2107   1.477       .  S
Cd1075     O1082   2.420       .  S
Cd1075     O1081   2.430       .  S
Cd1075     O1080   2.377       .  S
Cd1075     O1076   2.484       .  S
Cd1075     O1079   2.473       .  S
Cd1075     O1077   2.409       .  S
C1078      O1082   1.265       .  A
C1078      C2044   1.482       .  S
O1083      C1086   1.272       .  A
O1083     Cd1088   2.472       .  S
C1084      O1093   1.265       .  A
C1084      O1089   1.274       .  A
C1084      C2014   1.479       .  S
O1085      C1091   1.273       .  A
O1085     Cd1088   2.452       .  S
C1086      O1094   1.266       .  A
C1086      C2027   1.488       .  S
C1087      O1092   1.270       .  A
C1087      O1090   1.266       .  A
C1087      C2034   1.475       .  S
Cd1088     O1095   2.390       .  S
Cd1088     O1094   2.438       .  S
Cd1088     O1093   2.399       .  S
Cd1088     O1089   2.467       .  S
Cd1088     O1092   2.451       .  S
Cd1088     O1090   2.428       .  S
C1091      O1095   1.265       .  A
C1091      C2007   1.478       .  S
O1096      C1099   1.273       .  A
O1096     Cd1101   2.498       .  S
C1097      O1106   1.266       .  A
C1097      O1102   1.273       .  A
C1097      C1987   1.486       .  S
O1098      C1104   1.273       .  A
O1098     Cd1101   2.476       .  S
C1099      O1107   1.265       .  A
C1099      C2094   1.490       .  S
C1100      O1105   1.269       .  A
C1100      O1103   1.267       .  A
C1100      C2037   1.478       .  S
Cd1101     O1108   2.392       .  S
Cd1101     O1107   2.423       .  S
Cd1101     O1106   2.416       .  S
Cd1101     O1102   2.482       .  S
Cd1101     O1105   2.464       .  S
Cd1101     O1103   2.444       .  S
C1104      O1108   1.264       .  A
C1104      C1994   1.482       .  S
O1109      C1112   1.273       .  A
O1109     Cd1114   2.464       .  S
C1110      O1119   1.266       .  A
C1110      O1115   1.274       .  A
C1110      C1954   1.481       .  S
O1111      C1117   1.275       .  A
O1111     Cd1114   2.473       .  S
C1112      O1120   1.267       .  A
C1112      C2064   1.485       .  S
C1113      O1118   1.272       .  A
C1113      O1116   1.267       .  A
C1113      C1974   1.479       .  S
Cd1114     O1121   2.391       .  S
Cd1114     O1120   2.413       .  S
Cd1114     O1118   2.453       .  S
Cd1114     O1116   2.435       .  S
C1117      O1121   1.264       .  A
C1117      C1964   1.483       .  S
O1122      C1125   1.275       .  A
O1122     Cd1127   2.478       .  S
C1123      C1924   1.484   1_554  S
O1124      C1130   1.275       .  A
O1124     Cd1127   2.455       .  S
C1125      O1133   1.266       .  A
C1125      C1947   1.490       .  S
C1126      O1131   1.272       .  A
C1126      O1129   1.268       .  A
C1126      C1977   1.472       .  S
Cd1127     O1134   2.389       .  S
Cd1127     O1133   2.424       .  S
Cd1127     O1132   2.402       .  S
Cd1127     O1128   2.474       .  S
Cd1127     O1131   2.460       .  S
Cd1127     O1129   2.424       .  S
C1130      O1134   1.265       .  A
C1130      C1934   1.476       .  S
O1135     Cd1140   2.443   1_554  S
C1136      O1145   1.265       .  A
C1136      O1141   1.274       .  A
C1136      C1904   1.478       .  S
O1137      C1143   1.277       .  A
C1138      O1146   1.268       .  A
C1138      C2024   1.483       .  S
C1139      O1144   1.272       .  A
C1139      O1142   1.267       .  A
C1139      C1914   1.473       .  S
Cd1140     O1145   2.376       .  S
Cd1140     O1141   2.459       .  S
Cd1140     O1144   2.475       .  S
Cd1140     O1142   2.401       .  S
C1143      O1147   1.265       .  A
C1143      C1894   1.475       .  S
O1148      C1151   1.273       .  A
O1148     Cd1153   2.473       .  S
C1149      O1158   1.265       .  A
C1149      O1154   1.273       .  A
C1149      C1874   1.482       .  S
O1150      C1156   1.274       .  A
O1150     Cd1153   2.471       .  S
C1151      O1159   1.267       .  A
C1151      C1944   1.490       .  S
C1152      O1157   1.271       .  A
C1152      O1155   1.268       .  A
C1152      C1917   1.481       .  S
Cd1153     O1160   2.392       .  S
Cd1153     O1159   2.431       .  S
Cd1153     O1158   2.402       .  S
Cd1153     O1154   2.478       .  S
Cd1153     O1157   2.476       .  S
Cd1153     O1155   2.415       .  S
C1156      O1160   1.264       .  A
C1156      C1884   1.481       .  S
O1161      C1164   1.274       .  A
O1161     Cd1166   2.465       .  S
C1162      O1171   1.268       .  A
C1162      O1167   1.274       .  A
C1162      C1854   1.485       .  S
O1163      C1169   1.277       .  A
O1163     Cd1166   2.473       .  S
C1164      O1172   1.266       .  A
C1164      C1967   1.484       .  S
C1165      O1170   1.274       .  A
C1165      O1168   1.267       .  A
C1165      C1864   1.477       .  S
Cd1166     O1173   2.359       .  S
Cd1166     O1172   2.405       .  S
Cd1166     O1171   2.433       .  S
Cd1166     O1167   2.446       .  S
Cd1166     O1170   2.463       .  S
Cd1166     O1168   2.395       .  S
C1169      O1173   1.265       .  A
C1169      C1957   1.480       .  S
O1174      C1177   1.273       .  A
O1174     Cd1179   2.464       .  S
C1175      O1184   1.268       .  A
C1175      O1180   1.273       .  A
C1175      C1844   1.484       .  S
O1176      C1182   1.274       .  A
O1176     Cd1179   2.473       .  S
C1177      O1185   1.265       .  A
C1177      C1824   1.480       .  S
C1178      O1183   1.271       .  A
C1178      O1181   1.267       .  A
C1178      C1867   1.469       .  S
Cd1179     O1186   2.391       .  S
Cd1179     O1185   2.397       .  S
Cd1179     O1184   2.423       .  S
Cd1179     O1180   2.463       .  S
Cd1179     O1183   2.450       .  S
Cd1179     O1181   2.409       .  S
C1182      O1186   1.265       .  A
C1182      C1834   1.476       .  S
O1187      C1190   1.274       .  A
O1187     Cd1192   2.472       .  S
C1188      O1197   1.266       .  A
C1188      O1193   1.273       .  A
C1188      C1804   1.488       .  S
O1189      C1195   1.273       .  A
O1189     Cd1192   2.472       .  S
C1190      O1198   1.264       .  A
C1190      C1787   1.475       .  S
C1191      O1196   1.270       .  A
C1191      O1194   1.269       .  A
C1191      C1814   1.480       .  S
Cd1192     O1199   2.414       .  S
Cd1192     O1198   2.389       .  S
Cd1192     O1197   2.418       .  S
Cd1192     O1193   2.480       .  S
Cd1192     O1196   2.442       .  S
Cd1192     O1194   2.463       .  S
C1195      O1199   1.264       .  A
C1195      C1797   1.481       .  S
O1200      C1203   1.273       .  A
O1200     Cd1205   2.503       .  S
C1201      O1210   1.267       .  A
C1201      O1206   1.273   1_554  A
O1202      C1208   1.271       .  A
O1202     Cd1205   2.456       .  S
C1203      O1211   1.262       .  A
C1203      C2047   1.480       .  S
C1204      O1209   1.269       .  A
C1204      O1207   1.268       .  A
C1204      C1817   1.479       .  S
Cd1205     O1212   2.427       .  S
Cd1205     O1211   2.374       .  S
Cd1205     O1210   2.421   1_556  S
Cd1205     O1206   2.475       .  S
Cd1205     O1209   2.444       .  S
Cd1205     O1207   2.465       .  S
C1208      O1212   1.264       .  A
O1213      C1216   1.273       .  A
O1213     Cd1218   2.464       .  S
C1214      O1223   1.267       .  A
C1214      O1219   1.270       .  A
C1214      C1847   1.488       .  S
O1215      C1221   1.272       .  A
O1215     Cd1218   2.480       .  S
C1216      O1224   1.264       .  A
C1216      C1757   1.482       .  S
C1217      O1222   1.270       .  A
C1217      O1220   1.267       .  A
C1217      C1774   1.480       .  S
Cd1218     O1225   2.381       .  S
Cd1218     O1224   2.409       .  S
Cd1218     O1223   2.433       .  S
Cd1218     O1219   2.483       .  S
Cd1218     O1222   2.467       .  S
Cd1218     O1220   2.419       .  S
C1221      O1225   1.263       .  A
C1221      C1764   1.477       .  S
O1226      C1229   1.271       .  A
O1226     Cd1231   2.459       .  S
C1227      O1236   1.265       .  A
C1227      O1232   1.274       .  A
C1227      C1897   1.474       .  S
O1228      C1234   1.270       .  A
O1228     Cd1231   2.453       .  S
C1229      O1237   1.265       .  A
C1229      C1744   1.482       .  S
C1230      O1235   1.272       .  A
C1230      O1233   1.264       .  A
C1230      C1907   1.478       .  S
Cd1231     O1238   2.427       .  S
Cd1231     O1237   2.415       .  S
Cd1231     O1236   2.381       .  S
Cd1231     O1232   2.457       .  S
Cd1231     O1235   2.453       .  S
Cd1231     O1233   2.406       .  S
C1234      O1238   1.266       .  A
C1234      C1777   1.471       .  S
O1239      C1242   1.275       .  A
O1239     Cd1244   2.469       .  S
C1240      O1249   1.267       .  A
C1240      O1245   1.276       .  A
C1240      C1807   1.486       .  S
O1241      C1247   1.275       .  A
O1241     Cd1244   2.445       .  S
C1242      O1250   1.265       .  A
C1242      C1714   1.483       .  S
C1243      O1248   1.271       .  A
C1243      O1246   1.268       .  A
C1243      C1734   1.463       .  S
Cd1244     O1251   2.354       .  S
Cd1244     O1250   2.406       .  S
Cd1244     O1249   2.415       .  S
Cd1244     O1245   2.467       .  S
Cd1244     O1248   2.418       .  S
Cd1244     O1246   2.398       .  S
C1247      O1251   1.265       .  A
C1247      C1724   1.473       .  S
O1252      C1255   1.274       .  A
C1253      O1262   1.267       .  A
C1253      O1258   1.273       .  A
C1253      C1747   1.480       .  S
O1254      C1260   1.274       .  A
O1254     Cd1257   2.452       .  S
C1255      O1263   1.265       .  A
C1255      C2004   1.477       .  S
C1256      O1259   1.267       .  A
C1256      C1737   1.470       .  S
Cd1257     O1264   2.406       .  S
Cd1257     O1262   2.414       .  S
Cd1257     O1258   2.442       .  S
Cd1257     O1261   2.426       .  S
C1260      O1264   1.266       .  A
C1260      C2017   1.478   1_655  S
O1265      C1268   1.275       .  A
O1265     Cd1270   2.476       .  S
C1266      O1275   1.267       .  A
C1266      O1271   1.275       .  A
C1266      C1694   1.486       .  S
O1267      C1273   1.276       .  A
O1267     Cd1270   2.475       .  S
C1268      O1276   1.265       .  A
C1268      C2074   1.483       .  S
C1269      O1274   1.272       .  A
C1269      O1272   1.267       .  A
C1269      C1704   1.468       .  S
Cd1270     O1277   2.429       .  S
Cd1270     O1276   2.390       .  S
Cd1270     O1275   2.415       .  S
Cd1270     O1271   2.466       .  S
Cd1270     O1274   2.464       .  S
Cd1270     O1272   2.439       .  S
C1273      O1277   1.266       .  A
C1273      C2084   1.490       .  S
O1278      C1281   1.274       .  A
O1278     Cd1283   2.454       .  S
C1279      O1284   1.273   1_554  A
O1280      C1286   1.273       .  A
O1280     Cd1283   2.467   1_554  S
C1281      O1289   1.265       .  A
C1281      C1664   1.479       .  S
C1282      O1287   1.271       .  A
C1282      O1285   1.267       .  A
C1282      C1707   1.483       .  S
Cd1283     O1290   2.394   1_556  S
Cd1283     O1289   2.408       .  S
Cd1283     O1284   2.464       .  S
Cd1283     O1287   2.436       .  S
Cd1283     O1285   2.429       .  S
C1286      O1290   1.265       .  A
O1291      C1294   1.273       .  A
O1291     Cd1296   2.487       .  S
C1292      O1301   1.266       .  A
C1292      O1297   1.274       .  A
O1293      C1299   1.270       .  A
O1293     Cd1296   2.451       .  S
C1294      O1302   1.265       .  A
C1294      C1697   1.487       .  S
C1295      O1300   1.272       .  A
C1295      O1298   1.266       .  A
C1295      C1984   1.483       .  S
Cd1296     O1303   2.430       .  S
Cd1296     O1302   2.416       .  S
Cd1296     O1301   2.406       .  S
Cd1296     O1297   2.462       .  S
Cd1296     O1300   2.474       .  S
Cd1296     O1298   2.399       .  S
C1299      O1303   1.267       .  A
C1299      C1654   1.474       .  S
O1304      C1307   1.274       .  A
C1305      O1314   1.265       .  A
C1305      O1310   1.273       .  A
C1305      C1647   1.482       .  S
O1306      C1312   1.273       .  A
O1306     Cd1309   2.466       .  S
C1307      O1315   1.266       .  A
C1307      C1634   1.480       .  S
C1308      O1311   1.266       .  A
C1308      C1657   1.470       .  S
Cd1309     O1316   2.396       .  S
Cd1309     O1314   2.407       .  S
Cd1309     O1310   2.462       .  S
Cd1309     O1313   2.452       .  S
C1312      O1316   1.265       .  A
C1312      C1627   1.481       .  S
O1317      C1320   1.273       .  A
O1317     Cd1322   2.456       .  S
C1318      O1327   1.266       .  A
C1318      O1323   1.272       .  A
C1318      C1687   1.482       .  S
O1319      C1325   1.274       .  A
O1319     Cd1322   2.462       .  S
C1320      O1328   1.266       .  A
C1320      C1607   1.482       .  S
C1321      O1326   1.272       .  A
C1321      O1324   1.266       .  A
C1321      C1614   1.475       .  S
Cd1322     O1329   2.384       .  S
Cd1322     O1328   2.410       .  S
Cd1322     O1327   2.428       .  S
Cd1322     O1323   2.456       .  S
Cd1322     O1326   2.463       .  S
Cd1322     O1324   2.387       .  S
C1325      O1329   1.264       .  A
C1325      C1594   1.479       .  S
O1330      C1333   1.275       .  A
O1330     Cd1335   2.454       .  S
C1331      O1340   1.265       .  A
C1331      O1336   1.276       .  A
C1331      C1937   1.480       .  S
O1332      C1338   1.272       .  A
O1332     Cd1335   2.445       .  S
C1333      O1341   1.269       .  A
C1333      C1587   1.485       .  S
C1334      O1339   1.276       .  A
C1334      O1337   1.267       .  A
C1334      C1927   1.482       .  S
Cd1335     O1342   2.419       .  S
Cd1335     O1341   2.421       .  S
Cd1335     O1340   2.368       .  S
Cd1335     O1336   2.482       .  S
Cd1335     O1339   2.457       .  S
Cd1335     O1337   2.399       .  S
C1338      O1342   1.268       .  A
C1338      C1617   1.470       .  S
O1343      C1346   1.274       .  A
O1343     Cd1348   2.478       .  S
C1344      O1353   1.268       .  A
C1344      O1349   1.273       .  A
C1344      C1644   1.481       .  S
O1345      C1351   1.275       .  A
O1345     Cd1348   2.479       .  S
C1346      O1354   1.264       .  A
C1346      C1564   1.481       .  S
C1347      O1352   1.271       .  A
C1347      O1350   1.267       .  A
C1347      C1577   1.476       .  S
Cd1348     O1355   2.421       .  S
Cd1348     O1354   2.368       .  S
Cd1348     O1353   2.421       .  S
Cd1348     O1349   2.442       .  S
Cd1348     O1352   2.446       .  S
Cd1348     O1350   2.448       .  S
C1351      O1355   1.265       .  A
C1351      C1554   1.487       .  S
O1356      C1359   1.274       .  A
O1356     Cd1361   2.485       .  S
C1357      O1366   1.266       .  A
C1357      O1362   1.274       .  A
C1357      C1584   1.488       .  S
O1358      C1364   1.273       .  A
O1358     Cd1361   2.460       .  S
C1359      O1367   1.264       .  A
C1359      C1887   1.484       .  S
C1360      O1365   1.270       .  A
C1360      O1363   1.269       .  A
C1360      C1574   1.477       .  S
Cd1361     O1368   2.414       .  S
Cd1361     O1367   2.392       .  S
Cd1361     O1366   2.406       .  S
Cd1361     O1362   2.485       .  S
Cd1361     O1365   2.443       .  S
Cd1361     O1363   2.456       .  S
C1364      O1368   1.265       .  A
C1364      C1877   1.477       .  S
O1369      C1372   1.275       .  A
O1369     Cd1374   2.473       .  S
C1370      O1379   1.267       .  A
C1370      O1375   1.275       .  A
O1371      C1377   1.272       .  A
O1371     Cd1374   2.440       .  S
C1372      O1380   1.266       .  A
C1372      C1794   1.482       .  S
C1373      O1378   1.274       .  A
C1373      O1376   1.266       .  A
Cd1374     O1381   2.402       .  S
Cd1374     O1380   2.387       .  S
Cd1374     O1379   2.403       .  S
Cd1374     O1375   2.479       .  S
Cd1374     O1378   2.456       .  S
Cd1374     O1376   2.391       .  S
C1377      O1381   1.268       .  A
C1377      C1547   1.472       .  S
O1382      C1385   1.271       .  A
O1382     Cd1387   2.444       .  S
C1383      O1392   1.264       .  A
C1383      O1388   1.272       .  A
C1383      C1674   1.477       .  S
O1384      C1390   1.273       .  A
O1384     Cd1387   2.477       .  S
C1385      O1393   1.267       .  A
C1385      C1527   1.483       .  S
C1386      O1391   1.270       .  A
C1386      O1389   1.266       .  A
C1386      C1544   1.468       .  S
Cd1387     O1394   2.383       .  S
Cd1387     O1393   2.430       .  S
Cd1387     O1392   2.401       .  S
Cd1387     O1388   2.457       .  S
Cd1387     O1391   2.440       .  S
Cd1387     O1389   2.412       .  S
C1390      O1394   1.264       .  A
C1390      C1667   1.478       .  S
O1395      C1398   1.275       .  A
C1396      O1405   1.267       .  A
C1396      O1401   1.274       .  A
C1396      C1504   1.487       .  S
O1397      C1403   1.271       .  A
O1397     Cd1400   2.442       .  S
C1398      C1837   1.481       .  S
C1399      O1404   1.274       .  A
C1399      O1402   1.265       .  A
C1399      C1827   1.477       .  S
Cd1400     O1407   2.435       .  S
Cd1400     O1406   2.395       .  S
Cd1400     O1405   2.425       .  S
Cd1400     O1401   2.478       .  S
Cd1400     O1404   2.454       .  S
Cd1400     O1402   2.402       .  S
C1403      O1407   1.268       .  A
C1403      C1517   1.474       .  S
O1408      C1411   1.275       .  A
C1409      O1418   1.268       .  A
C1409      O1414   1.273       .  A
C1409      C1524   1.480       .  S
O1410      C1416   1.272       .  A
O1410     Cd1413   2.430       .  S
C1411      O1419   1.264       .  A
C1411      C1597   1.476       .  S
C1412      O1417   1.275       .  A
C1412      O1415   1.265       .  A
C1412      C1604   1.484       .  S
Cd1413     O1420   2.432       .  S
Cd1413     O1418   2.417       .  S
Cd1413     O1414   2.448       .  S
Cd1413     O1417   2.474       .  S
Cd1413     O1415   2.394       .  S
C1416      O1420   1.267       .  A
C1416      C1514   1.469   1_556  S
O1421      C1424   1.274       .  A
C1422      O1431   1.266       .  A
C1422      O1427   1.276       .  A
C1422      C1557   1.486   1_655  S
O1423      C1429   1.275       .  A
C1424      O1432   1.267       .  A
C1424      C1484   1.485       .  S
C1425      O1430   1.274       .  A
C1425      O1428   1.267       .  A
C1425      C1494   1.481       .  S
Cd1426     O1431   2.400       .  S
Cd1426     O1427   2.477       .  S
Cd1426     O1430   2.486       .  S
Cd1426     O1428   2.396       .  S
C1429      O1433   1.266       .  A
C1429      C1567   1.483   1_655  S
O1434      C1437   1.270       .  A
O1434     Cd1439   2.463       .  S
C1435      O1444   1.267       .  A
C1435      O1440   1.272       .  A
C1435      C1767   1.478       .  S
O1436      C1442   1.275       .  A
O1436     Cd1439   2.488       .  S
C1437      O1445   1.266       .  A
C1437      C1507   1.487       .  S
C1438      O1443   1.272       .  A
C1438      O1441   1.265       .  A
C1438      C1497   1.471       .  S
Cd1439     O1446   2.375       .  S
Cd1439     O1445   2.440       .  S
Cd1439     O1444   2.422       .  S
Cd1439     O1440   2.430       .  S
Cd1439     O1443   2.472       .  S
Cd1439     O1441   2.421       .  S
C1442      O1446   1.262       .  A
C1442      C1754   1.481       .  S
O1447      C1450   1.273       .  A
O1447     Cd1452   2.459       .  S
C1448      O1457   1.265       .  A
C1448      O1453   1.273       .  A
C1448      C1624   1.484       .  S
O1449      C1455   1.273       .  A
O1449     Cd1452   2.444       .  S
C1450      O1458   1.266       .  A
C1450      C1487   1.483   1_545  S
C1451      O1456   1.271       .  A
C1451      O1454   1.267       .  A
C1451      C1474   1.474       .  S
Cd1452     O1459   2.406       .  S
Cd1452     O1458   2.411       .  S
Cd1452     O1457   2.411       .  S
Cd1452     O1453   2.466       .  S
Cd1452     O1456   2.446       .  S
Cd1452     O1454   2.407       .  S
C1455      O1459   1.265       .  A
C1455      C1637   1.479       .  S
O1460      C1463   1.273       .  A
O1460     Cd1465   2.477       .  S
C1461      O1470   1.266       .  A
C1461      O1466   1.275       .  A
C1461      C1727   1.475       .  S
O1462      C1468   1.273       .  A
O1462     Cd1465   2.456       .  S
C1463      O1471   1.265       .  A
C1463      C1534   1.485       .  S
C1464      O1469   1.271       .  A
C1464      O1467   1.267       .  A
C1464      C1477   1.465       .  S
Cd1465     O1472   2.407       .  S
Cd1465     O1471   2.400       .  S
Cd1465     O1470   2.375       .  S
Cd1465     O1466   2.440       .  S
Cd1465     O1469   2.433       .  S
Cd1465     O1467   2.425       .  S
C1468      O1472   1.265       .  A
C1468      C1717   1.482       .  S
C1473      C1474   1.409       .  A
C1473      C1478   1.395       .  A
C1473      F1480   1.358       .  S
C1474      C1475   1.406       .  A
C1475      C1476   1.398       .  A
C1475      F1482   1.358       .  S
C1476      C1477   1.405       .  A
C1476      F1481   1.358       .  S
C1477      C1478   1.400       .  A
C1478      F1479   1.358       .  S
C1483      C1484   1.411       .  A
C1483      C1488   1.398       .  A
C1483      F1490   1.358       .  S
C1484      C1485   1.406       .  A
C1485      C1486   1.400   1_565  A
C1485      F1492   1.358       .  S
C1486      C1487   1.412   1_545  A
C1486      F1491   1.358       .  S
C1487      C1488   1.405       .  A
C1488      F1489   1.358       .  S
C1493      C1494   1.411       .  A
C1493      C1498   1.397       .  A
C1493      F1500   1.358       .  S
C1494      C1495   1.407       .  A
C1495      C1496   1.401       .  A
C1496      C1497   1.407       .  A
C1496      F1501   1.358       .  S
C1497      C1498   1.399       .  A
C1498      F1499   1.358       .  S
C1503      C1504   1.406       .  A
C1503      C1508   1.401       .  A
C1503      F1510   1.358       .  S
C1504      C1505   1.411       .  A
C1505      C1506   1.399       .  A
C1505      F1512   1.358       .  S
C1506      C1507   1.407       .  A
C1506      F1511   1.358       .  S
C1507      C1508   1.412       .  A
C1508      F1509   1.358       .  S
C1513      C1518   1.395       .  A
C1513      F1520   1.358       .  S
C1514      C1515   1.405       .  A
C1515      C1516   1.401       .  A
C1515      F1522   1.358       .  S
C1516      F1521   1.358       .  S
C1517      C1518   1.406       .  A
C1518      F1519   1.358       .  S
C1523      C1524   1.409       .  A
C1523      C1528   1.396       .  A
C1523      F1530   1.358       .  S
C1524      C1525   1.405       .  A
C1525      C1526   1.399   1_565  A
C1525      F1532   1.358   1_565  S
C1526      C1527   1.411       .  A
C1526      F1531   1.358       .  S
C1527      C1528   1.407   1_545  A
C1528      F1529   1.358       .  S
C1533      C1534   1.405       .  A
C1533      C1538   1.399       .  A
C1533      F1540   1.358       .  S
C1534      C1535   1.413       .  A
C1535      F1542   1.358       .  S
C1536      F1541   1.358       .  S
C1537      C1538   1.412   1_554  A
C1538      F1539   1.358       .  S
C1543      C1544   1.405       .  A
C1543      C1548   1.397       .  A
C1543      F1550   1.358       .  S
C1544      C1545   1.404       .  A
C1545      C1546   1.395       .  A
C1545      F1552   1.358       .  S
C1546      C1547   1.407       .  A
C1546      F1551   1.358       .  S
C1547      C1548   1.406       .  A
C1548      F1549   1.358       .  S
C1553      C1554   1.405       .  A
C1553      C1558   1.398       .  A
C1553      F1560   1.358       .  S
C1554      C1555   1.414       .  A
C1555      C1556   1.401       .  A
C1555      F1562   1.358       .  S
C1556      C1557   1.405       .  A
C1556      F1561   1.358   1_455  S
C1557      C1558   1.412       .  A
C1558      F1559   1.358       .  S
C1563      C1564   1.411       .  A
C1563      C1568   1.394       .  A
C1563      F1570   1.358       .  S
C1564      C1565   1.405       .  A
C1565      C1566   1.400       .  A
C1565      F1572   1.358       .  S
C1566      C1567   1.414       .  A
C1566      F1571   1.358       .  S
C1567      C1568   1.404       .  A
C1568      F1569   1.358       .  S
C1573      C1574   1.407       .  A
C1573      C1578   1.403       .  A
C1573      F1580   1.358       .  S
C1574      C1575   1.406       .  A
C1575      C1576   1.396       .  A
C1575      F1582   1.358       .  S
C1576      C1577   1.405       .  A
C1576      F1581   1.358       .  S
C1577      C1578   1.407       .  A
C1578      F1579   1.358       .  S
C1583      C1588   1.401   1_554  A
C1585      C1586   1.398       .  A
C1585      F1592   1.358       .  S
C1586      C1587   1.405       .  A
C1586      F1591   1.358       .  S
C1587      C1588   1.412       .  A
C1588      F1589   1.358       .  S
C1593      C1594   1.413       .  A
C1593      C1598   1.395       .  A
C1593      F1600   1.358       .  S
C1594      C1595   1.404       .  A
C1595      C1596   1.395       .  A
C1595      F1602   1.358       .  S
C1596      C1597   1.411       .  A
C1596      F1601   1.358       .  S
C1597      C1598   1.403       .  A
C1603      C1604   1.412       .  A
C1603      C1608   1.396       .  A
C1603      F1610   1.358       .  S
C1604      C1605   1.406       .  A
C1605      C1606   1.398       .  A
C1605      F1612   1.358       .  S
C1606      C1607   1.412       .  A
C1606      F1611   1.358       .  S
C1607      C1608   1.405       .  A
C1608      F1609   1.358       .  S
C1613      C1614   1.407       .  A
C1613      C1618   1.399       .  A
C1613      F1620   1.358       .  S
C1614      C1615   1.408       .  A
C1615      C1616   1.394       .  A
C1615      F1622   1.358       .  S
C1616      C1617   1.403       .  A
C1616      F1621   1.358       .  S
C1617      C1618   1.406       .  A
C1618      F1619   1.358       .  S
C1623      C1624   1.406       .  A
C1623      C1628   1.397   1_655  A
C1623      F1630   1.358       .  S
C1624      C1625   1.413       .  A
C1625      C1626   1.397   1_655  A
C1625      F1632   1.358       .  S
C1626      C1627   1.405       .  A
C1626      F1631   1.358       .  S
C1627      C1628   1.412       .  A
C1628      F1629   1.358       .  S
C1633      C1634   1.411       .  A
C1633      C1638   1.393   1_455  A
C1633      F1640   1.358       .  S
C1634      C1635   1.406       .  A
C1635      C1636   1.398       .  A
C1635      F1642   1.358       .  S
C1636      C1637   1.412   1_455  A
C1636      F1641   1.358       .  S
C1637      C1638   1.404       .  A
C1638      F1639   1.358       .  S
C1643      C1644   1.411       .  A
C1643      C1648   1.398       .  A
C1643      F1650   1.358       .  S
C1644      C1645   1.405   1_565  A
C1645      C1646   1.397       .  A
C1645      F1652   1.358       .  S
C1646      C1647   1.411       .  A
C1646      F1651   1.358       .  S
C1647      C1648   1.406   1_545  A
C1648      F1649   1.358       .  S
C1653      C1654   1.405       .  A
C1653      C1658   1.397       .  A
C1653      F1660   1.358       .  S
C1654      C1655   1.408       .  A
C1655      C1656   1.397       .  A
C1656      C1657   1.403       .  A
C1657      C1658   1.406       .  A
C1658      F1659   1.358       .  S
C1663      C1664   1.404       .  A
C1663      C1668   1.394       .  A
C1663      F1670   1.358       .  S
C1664      C1665   1.412       .  A
C1665      C1666   1.399       .  A
C1665      F1672   1.358       .  S
C1666      C1667   1.405       .  A
C1666      F1671   1.358       .  S
C1667      C1668   1.410       .  A
C1668      F1669   1.358       .  S
C1673      C1674   1.410       .  A
C1673      C1678   1.397       .  A
C1673      F1680   1.358       .  S
C1674      C1675   1.405       .  A
C1675      C1676   1.395       .  A
C1675      F1682   1.358       .  S
C1676      C1677   1.410       .  A
C1677      C1678   1.405       .  A
C1678      F1679   1.358       .  S
C1683      C1684   1.411       .  A
C1683      C1688   1.397       .  A
C1683      F1690   1.358   1_565  S
C1684      C1685   1.405       .  A
C1685      C1686   1.399       .  A
C1686      C1687   1.411       .  A
C1686      F1691   1.358       .  S
C1687      C1688   1.405       .  A
C1688      F1689   1.358       .  S
C1693      C1694   1.412       .  A
C1693      C1698   1.400       .  A
C1693      F1700   1.358       .  S
C1694      C1695   1.405       .  A
C1695      C1696   1.399       .  A
C1695      F1702   1.358       .  S
C1696      C1697   1.413       .  A
C1696      F1701   1.358       .  S
C1697      C1698   1.406       .  A
C1698      F1699   1.358       .  S
C1703      C1704   1.401       .  A
C1703      C1708   1.402       .  A
C1703      F1710   1.357       .  S
C1704      C1705   1.401       .  A
C1705      C1706   1.396       .  A
C1705      F1712   1.358       .  S
C1706      C1707   1.408       .  A
C1706      F1711   1.358       .  S
C1707      C1708   1.413       .  A
C1708      F1709   1.358       .  S
C1713      C1718   1.397       .  A
C1713      F1720   1.358   1_556  S
C1715      C1716   1.398       .  A
C1716      C1717   1.412       .  A
C1716      F1721   1.358       .  S
C1717      C1718   1.405       .  A
C1718      F1719   1.358       .  S
C1723      C1724   1.404       .  A
C1723      C1728   1.395       .  A
C1723      F1730   1.358       .  S
C1724      C1725   1.411       .  A
C1725      C1726   1.391       .  A
C1725      F1732   1.358       .  S
C1726      C1727   1.403       .  A
C1726      F1731   1.357       .  S
C1727      C1728   1.412       .  A
C1728      F1729   1.358       .  S
C1733      C1734   1.404       .  A
C1733      C1738   1.395       .  A
C1733      F1740   1.359       .  S
C1734      C1735   1.403       .  A
C1735      C1736   1.393       .  A
C1735      F1742   1.358       .  S
C1736      C1737   1.406       .  A
C1736      F1741   1.358       .  S
C1737      C1738   1.408       .  A
C1738      F1739   1.358       .  S
C1743      C1744   1.406       .  A
C1743      C1748   1.398       .  A
C1743      F1750   1.358       .  S
C1744      C1745   1.411       .  A
C1745      C1746   1.397       .  A
C1745      F1752   1.358       .  S
C1746      C1747   1.404       .  A
C1746      F1751   1.358       .  S
C1747      C1748   1.411       .  A
C1748      F1749   1.358       .  S
C1753      C1754   1.413       .  A
C1753      C1758   1.395       .  A
C1753      F1760   1.358       .  S
C1754      C1755   1.404       .  A
C1755      C1756   1.399       .  A
C1755      F1762   1.358       .  S
C1756      C1757   1.413       .  A
C1756      F1761   1.358       .  S
C1757      C1758   1.404       .  A
C1758      F1759   1.358       .  S
C1763      C1768   1.399       .  A
C1763      F1770   1.358       .  S
C1764      C1765   1.409       .  A
C1765      F1772   1.358       .  S
C1766      C1767   1.405       .  A
C1766      F1771   1.358       .  S
C1767      C1768   1.411       .  A
C1768      F1769   1.358       .  S
C1773      C1774   1.408       .  A
C1773      C1778   1.400       .  A
C1773      F1780   1.358       .  S
C1774      C1775   1.410       .  A
C1775      C1776   1.396       .  A
C1775      F1782   1.358       .  S
C1776      C1777   1.401       .  A
C1776      F1781   1.358       .  S
C1777      C1778   1.407       .  A
C1778      F1779   1.359       .  S
C1783      C1784   1.404       .  A
C1783      C1788   1.397   1_554  A
C1783      F1790   1.358       .  S
C1784      C1785   1.410       .  A
C1785      C1786   1.396   1_554  A
C1786      C1787   1.404       .  A
C1786      F1791   1.358       .  S
C1787      C1788   1.410       .  A
C1788      F1789   1.358       .  S
C1793      C1794   1.405       .  A
C1793      C1798   1.398       .  A
C1793      F1800   1.357       .  S
C1794      C1795   1.412       .  A
C1795      C1796   1.397       .  A
C1795      F1802   1.358       .  S
C1796      C1797   1.404       .  A
C1796      F1801   1.358       .  S
C1797      C1798   1.411       .  A
C1798      F1799   1.358       .  S
C1803      C1804   1.413       .  A
C1803      C1808   1.399       .  A
C1803      F1810   1.357       .  S
C1804      C1805   1.407       .  A
C1805      C1806   1.400       .  A
C1805      F1812   1.358       .  S
C1806      C1807   1.413       .  A
C1806      F1811   1.358       .  S
C1807      C1808   1.404       .  A
C1808      F1809   1.358       .  S
C1813      C1814   1.408       .  A
C1813      C1818   1.404       .  A
C1813      F1820   1.358       .  S
C1814      C1815   1.406       .  A
C1815      C1816   1.396       .  A
C1815      F1822   1.358       .  S
C1816      C1817   1.406       .  A
C1816      F1821   1.358       .  S
C1817      C1818   1.408       .  A
C1818      F1819   1.358       .  S
C1823      C1824   1.412       .  A
C1823      C1828   1.396       .  A
C1823      F1830   1.358       .  S
C1824      C1825   1.405       .  A
C1825      C1826   1.396       .  A
C1825      F1832   1.358       .  S
C1826      C1827   1.410       .  A
C1826      F1831   1.358       .  S
C1827      C1828   1.403       .  A
C1828      F1829   1.358       .  S
C1833      C1834   1.403       .  A
C1833      C1838   1.398       .  A
C1833      F1840   1.358       .  S
C1834      C1835   1.409       .  A
C1835      C1836   1.396       .  A
C1835      F1842   1.358       .  S
C1836      C1837   1.405   1_556  A
C1836      F1841   1.358   1_556  S
C1837      C1838   1.413   1_554  A
C1838      F1839   1.358   1_556  S
C1843      C1844   1.405       .  A
C1843      C1848   1.400       .  A
C1843      F1850   1.357       .  S
C1844      C1845   1.410       .  A
C1845      C1846   1.400   1_556  A
C1845      F1852   1.359   1_556  S
C1848      F1849   1.358       .  S
C1853      C1854   1.405       .  A
C1853      C1858   1.398       .  A
C1853      F1860   1.358       .  S
C1854      C1855   1.411       .  A
C1855      C1856   1.401       .  A
C1855      F1862   1.358       .  S
C1856      C1857   1.408       .  A
C1856      F1861   1.358       .  S
C1857      C1858   1.412       .  A
C1858      F1859   1.358       .  S
C1863      C1864   1.409       .  A
C1863      C1868   1.395       .  A
C1863      F1870   1.358       .  S
C1864      C1865   1.407       .  A
C1865      C1866   1.399       .  A
C1865      F1872   1.358       .  S
C1866      C1867   1.405       .  A
C1866      F1871   1.358       .  S
C1867      C1868   1.402       .  A
C1868      F1869   1.358       .  S
C1873      C1874   1.412       .  A
C1873      C1878   1.396       .  A
C1873      F1880   1.358       .  S
C1875      C1876   1.399       .  A
C1875      F1882   1.357       .  S
C1876      C1877   1.410       .  A
C1876      F1881   1.358       .  S
C1878      F1879   1.358       .  S
C1883      C1884   1.412       .  A
C1883      C1888   1.398       .  A
C1883      F1890   1.358       .  S
C1884      C1885   1.404       .  A
C1885      C1886   1.397       .  A
C1885      F1892   1.358       .  S
C1886      C1887   1.413       .  A
C1886      F1891   1.358       .  S
C1887      C1888   1.405       .  A
C1888      F1889   1.357       .  S
C1893      C1894   1.412       .  A
C1893      C1898   1.395       .  A
C1894      C1895   1.402       .  A
C1895      C1896   1.395   1_455  A
C1895      F1902   1.358       .  S
C1896      C1897   1.410       .  A
C1896      F1901   1.358       .  S
C1897      C1898   1.403   1_655  A
C1898      F1899   1.358   1_455  S
C1903      C1904   1.406       .  A
C1903      C1908   1.397       .  A
C1903      F1910   1.358       .  S
C1904      C1905   1.411       .  A
C1905      C1906   1.393   1_455  A
C1905      F1912   1.358       .  S
C1906      C1907   1.404       .  A
C1906      F1911   1.358       .  S
C1907      C1908   1.411   1_655  A
C1908      F1909   1.358       .  S
C1913      C1914   1.403       .  A
C1913      C1918   1.394       .  A
C1913      F1920   1.358       .  S
C1914      C1915   1.405       .  A
C1915      C1916   1.403       .  A
C1915      F1922   1.358       .  S
C1916      C1917   1.410       .  A
C1916      F1921   1.358       .  S
C1917      C1918   1.408       .  A
C1918      F1919   1.358       .  S
C1923      C1924   1.406       .  A
C1923      C1928   1.398       .  A
C1924      C1925   1.412       .  A
C1925      C1926   1.398       .  A
C1925      F1932   1.358       .  S
C1926      C1927   1.404       .  A
C1926      F1931   1.358       .  S
C1927      C1928   1.412       .  A
C1928      F1929   1.358       .  S
C1933      C1934   1.411       .  A
C1933      C1938   1.398       .  A
C1933      F1940   1.358       .  S
C1934      C1935   1.402       .  A
C1935      C1936   1.395       .  A
C1935      F1942   1.358       .  S
C1936      C1937   1.413       .  A
C1936      F1941   1.358       .  S
C1937      C1938   1.405       .  A
C1938      F1939   1.357       .  S
C1943      C1944   1.407       .  A
C1943      C1948   1.401       .  A
C1943      F1950   1.358       .  S
C1944      C1945   1.413       .  A
C1945      C1946   1.401       .  A
C1945      F1952   1.357       .  S
C1946      C1947   1.405       .  A
C1946      F1951   1.358       .  S
C1947      C1948   1.413       .  A
C1948      F1949   1.358       .  S
C1953      C1954   1.404       .  A
C1953      C1958   1.393       .  A
C1953      F1960   1.358       .  S
C1954      C1955   1.413       .  A
C1955      C1956   1.399       .  A
C1956      C1957   1.405       .  A
C1956      F1961   1.358       .  S
C1957      C1958   1.412       .  A
C1958      F1959   1.358       .  S
C1963      C1964   1.405       .  A
C1963      C1968   1.398       .  A
C1963      F1970   1.358       .  S
C1964      C1965   1.413       .  A
C1965      C1966   1.397       .  A
C1965      F1972   1.358       .  S
C1966      C1967   1.405       .  A
C1966      F1971   1.358       .  S
C1967      C1968   1.413       .  A
C1968      F1969   1.358       .  S
C1973      C1978   1.400       .  A
C1973      F1980   1.358       .  S
C1974      C1975   1.405       .  A
C1975      C1976   1.397       .  A
C1975      F1982   1.358       .  S
C1976      F1981   1.358       .  S
C1977      C1978   1.402       .  A
C1978      F1979   1.358       .  S
C1983      C1984   1.411       .  A
C1983      C1988   1.398       .  A
C1983      F1990   1.359       .  S
C1984      C1985   1.406       .  A
C1985      C1986   1.399       .  A
C1985      F1992   1.357       .  S
C1986      C1987   1.412       .  A
C1986      F1991   1.358       .  S
C1987      C1988   1.407       .  A
C1988      F1989   1.357       .  S
C1993      C1994   1.412       .  A
C1993      F2000   1.358       .  S
C1994      C1995   1.405       .  A
C1995      C1996   1.398       .  A
C1995      F2002   1.358       .  S
C1996      C1997   1.413       .  A
C1996      F2001   1.358   1_556  S
C1998      F1999   1.358       .  S
C2003      C2004   1.404       .  A
C2003      C2008   1.396   1_655  A
C2003      F2010   1.358       .  S
C2004      C2005   1.411   1_655  A
C2005      C2006   1.393       .  A
C2005      F2012   1.358       .  S
C2006      C2007   1.404       .  A
C2006      F2011   1.358       .  S
C2007      C2008   1.412       .  A
C2008      F2009   1.358       .  S
C2013      C2014   1.405       .  A
C2013      C2018   1.398       .  A
C2013      F2020   1.358       .  S
C2014      C2015   1.411       .  A
C2015      C2016   1.396       .  A
C2015      F2022   1.358       .  S
C2016      C2017   1.404       .  A
C2016      F2021   1.358   1_455  S
C2017      C2018   1.411       .  A
C2018      F2019   1.358       .  S
C2023      C2024   1.405       .  A
C2023      C2028   1.399       .  A
C2023      F2030   1.358       .  S
C2024      C2025   1.410       .  A
C2025      C2026   1.399       .  A
C2025      F2032   1.358       .  S
C2026      C2027   1.408       .  A
C2026      F2031   1.358       .  S
C2027      C2028   1.412       .  A
C2028      F2029   1.358       .  S
C2033      C2034   1.409       .  A
C2033      C2038   1.400       .  A
C2033      F2040   1.359       .  S
C2034      C2035   1.403       .  A
C2035      C2036   1.397       .  A
C2035      F2042   1.358       .  S
C2036      C2037   1.408       .  A
C2036      F2041   1.357       .  S
C2037      C2038   1.406       .  A
C2038      F2039   1.358       .  S
C2043      C2044   1.404       .  A
C2043      C2048   1.394       .  A
C2043      F2050   1.358       .  S
C2044      C2045   1.413       .  A
C2045      C2046   1.401       .  A
C2045      F2052   1.358       .  S
C2046      C2047   1.405       .  A
C2046      F2051   1.358       .  S
C2047      C2048   1.410       .  A
C2048      F2049   1.358       .  S
C2053      C2054   1.403       .  A
C2053      C2058   1.395       .  A
C2053      F2060   1.358       .  S
C2054      C2055   1.409       .  A
C2055      C2056   1.398       .  A
C2056      C2057   1.404       .  A
C2056      F2061   1.358       .  S
C2057      C2058   1.409       .  A
C2058      F2059   1.359       .  S
C2063      C2064   1.407       .  A
C2063      C2068   1.400       .  A
C2063      F2070   1.358       .  S
C2064      C2065   1.411       .  A
C2065      C2066   1.398       .  A
C2065      F2072   1.358       .  S
C2066      C2067   1.406       .  A
C2066      F2071   1.358       .  S
C2067      C2068   1.412       .  A
C2068      F2069   1.358       .  S
C2073      C2074   1.404       .  A
C2073      C2078   1.396       .  A
C2073      F2080   1.358       .  S
C2074      C2075   1.413       .  A
C2075      F2082   1.358       .  S
C2076      C2077   1.404       .  A
C2076      F2081   1.358       .  S
C2083      C2084   1.405       .  A
C2083      C2088   1.399       .  A
C2083      F2090   1.358       .  S
C2084      C2085   1.414       .  A
C2085      C2086   1.402       .  A
C2085      F2092   1.358       .  S
C2086      C2087   1.407       .  A
C2086      F2091   1.358       .  S
C2087      C2088   1.412       .  A
C2088      F2089   1.358       .  S
C2093      C2094   1.412       .  A
C2093      F2100   1.358       .  S
C2094      C2095   1.407       .  A
C2095      C2096   1.404       .  A
C2095      F2102   1.358       .  S
C2096      F2101   1.358       .  S
C2097      C2098   1.407       .  A
C2098      F2099   1.358       .  S
C2103      C2104   1.409       .  A
C2103      C2108   1.396       .  A
C2103      F2110   1.358       .  S
C2104      C2105   1.410       .  A
C2105      C2106   1.403       .  A
C2105      F2112   1.357       .  S
C2106      C2107   1.407       .  A
C2106      F2111   1.358       .  S
C2107      C2108   1.405       .  A
C2108      F2109   1.358       .  S
