geometry optimzed in LAMMPS
_audit_creation_date              2020-12-01 
_audit_creation_method            'lammps2cif' 
_symmetry_space_group_name_H-M    'P1' 
_symmetry_Int_Tables_number       1 
_symmetry_cell_setting            triclinic 
loop_ 
_symmetry_equiv_pos_as_xyz 
  x,y,z 
_cell_length_a                    23.71885838 
_cell_length_b                    24.66063631527414 
_cell_length_c                    48.84683582973357 
_cell_angle_alpha                 90.55664540485883 
_cell_angle_beta                  91.43619504606848 
_cell_angle_gamma                 91.23574968261633 
loop_ 
_atom_site_label 
_atom_site_type_symbol 
_atom_site_fract_x 
_atom_site_fract_y 
_atom_site_fract_z 
_atom_site_charge 
C1          C  0.19747537  0.25667730  0.10862702     0.30600
C2          C  0.26283340  0.30985009  0.14613378     0.30600
C3          C  0.17325281  0.30972995  0.11992923    -0.05600
C4          C  0.21172101  0.22189066  0.13435994    -0.06300
C5          C  0.25730637  0.27305073  0.09847006    -0.06200
C6          C  0.20800994  0.33969594  0.13703709    -0.05600
C7          C  0.24391605  0.25063194  0.15337470    -0.06300
C8          C  0.29305543  0.30024541  0.11719877    -0.06200
C9          C  0.18114836  0.38995178  0.14033172    -0.31600
N10         N  0.12894064  0.38863092  0.12735535     0.14900
C11         C  0.12473384  0.33934055  0.11470658    -0.31600
H12         H  0.08916390  0.32618076  0.10180119     0.16800
C13         C  0.25451897  0.21648422  0.17546954    -0.30600
N14         N  0.23113710  0.16650404  0.17091921     0.13600
C15         C  0.20635947  0.16891215  0.14529813    -0.30600
C16         C  0.34382991  0.30790491  0.10197004    -0.30900
N17         N  0.33881992  0.28650055  0.07532852     0.14100
H18         H  0.38174928  0.32798645  0.11007607     0.16700
C19         C  0.28555403  0.26463616  0.07396482    -0.30900
H20         H  0.26822716  0.24221907  0.05644462     0.16800
H21         H  0.18695122  0.13416299  0.13541886     0.16800
H22         H  0.19832828  0.42453249  0.15177129     0.16800
H23         H  0.27728215  0.22752806  0.19409584     0.16800
N24         N  0.06565836  0.52923703  0.12476544    -0.36000
N25         N  0.97948488  0.44195345  0.12467397    -0.56500
N26         N  0.88801819  0.52363553  0.12769495    -0.36000
N27         N  0.97417582  0.61114569  0.12195883    -0.56500
C28         C  0.09842812  0.48518553  0.12053808     0.27600
C29         C  0.09492577  0.57429698  0.11678102     0.27600
C30         C  0.85708883  0.47720718  0.12202096     0.27600
C31         C  0.85470735  0.56719811  0.12257090     0.27600
C32         C  0.02666003  0.41314222  0.13110815     0.36200
C33         C  0.93365400  0.40972422  0.13027802     0.36200
C34         C  0.02112971  0.64397766  0.12521624     0.36200
C35         C  0.92855136  0.64115541  0.12865569     0.36200
C36         C  0.14886679  0.50254710  0.10952476    -0.21300
C37         C  0.14659061  0.55832085  0.10704365    -0.21300
C38         C  0.80363844  0.49172098  0.11307106    -0.21300
C39         C  0.80226552  0.54790395  0.11332353    -0.21300
C40         C  0.01026484  0.36301465  0.14111262    -0.22300
C41         C  0.95213510  0.36083618  0.14049401    -0.22300
C42         C  0.00514237  0.69469336  0.13414781    -0.22300
C43         C  0.94727550  0.69284081  0.13651367    -0.22300
C44         C  0.08441388  0.42995331  0.12692225    -0.17700
C45         C  0.07835146  0.62971930  0.11990134    -0.17700
C46         C  0.86999725  0.62376471  0.12643085    -0.17700
C47         C  0.87511501  0.42217280  0.12555384    -0.17700
H48         H  0.18363559  0.47765033  0.10361450     0.15300
H49         H  0.17957305  0.58416428  0.09901014     0.15300
H50         H  0.76919074  0.46469721  0.10662679     0.15300
H51         H  0.76694045  0.57177720  0.10667692     0.15300
H52         H  0.03727172  0.33125940  0.14851843     0.13500
H53         H  0.92636976  0.32729176  0.14748530     0.13500
H54         H  0.03240939  0.72937208  0.13901590     0.13500
H55         H  0.92211453  0.72598585  0.14358602     0.13500
H56         H  0.02777327  0.52919658  0.13503170     0.26800
H57         H  0.92823994  0.52542145  0.13668448     0.26800
C58         C  0.75613151  0.80157740  0.11096115     0.30600
C59         C  0.68436962  0.73659242  0.13858439     0.30600
C60         C  0.78035109  0.74457109  0.11872946    -0.05600
C61         C  0.73837020  0.82384018  0.13894622    -0.06300
C62         C  0.70240445  0.78445959  0.09487042    -0.06200
C63         C  0.74434202  0.71155438  0.13398264    -0.05600
C64         C  0.70191243  0.79195880  0.15352610    -0.06300
C65         C  0.66549869  0.75338148  0.10915799    -0.06200
C66         C  0.77446761  0.66396576  0.13944019    -0.31600
N67         N  0.82539996  0.66528703  0.12654998     0.14900
C68         C  0.82769961  0.71366690  0.11322447    -0.31600
H69         H  0.86113216  0.72444842  0.09953949     0.16800
C70         C  0.69801630  0.81895005  0.17925878    -0.30600
N71         N  0.72968546  0.86656417  0.17981586     0.13600
C72         C  0.75541505  0.86818462  0.15519678    -0.30600
C73         C  0.62023766  0.74098715  0.09124081    -0.30900
N74         N  0.62861034  0.76390055  0.06632917     0.14100
H75         H  0.58330676  0.71673989  0.09602871     0.16700
C76         C  0.67984587  0.79002041  0.06829530    -0.30900
H77         H  0.69899324  0.81230797  0.05184759     0.16800
H78         H  0.78523321  0.89957423  0.14934667     0.16800
H79         H  0.76010490  0.63076229  0.15192279     0.16800
H80         H  0.67387418  0.80458653  0.19634247     0.16800
N81         N  0.23799234  0.93695525  0.24084631    -0.36000
N82         N  0.23335813  0.02158809  0.19791293    -0.56500
N83         N  0.23920761  0.10598483  0.24195827    -0.36000
N84         N  0.23198381  0.02159739  0.28456494    -0.56500
C85         C  0.22830076  0.90644053  0.21756563     0.27600
C86         C  0.22346101  0.90619773  0.26290617     0.27600
C87         C  0.22289988  0.13514951  0.21953807     0.27600
C88         C  0.22844180  0.13607111  0.26486814     0.27600
C89         C  0.24635877  0.97769496  0.18219095     0.36200
C90         C  0.24200336  0.06699420  0.18259858     0.36200
C91         C  0.23903980  0.97645729  0.30025651     0.36200
C92         C  0.24474882  0.06601211  0.30077868     0.36200
C93         C  0.20660879  0.85631853  0.22503247    -0.21300
C94         C  0.20369149  0.85605619  0.25328758    -0.21300
C95         C  0.20017703  0.18331105  0.22862501    -0.21300
C96         C  0.20442019  0.18422893  0.25686517    -0.21300
C97         C  0.26405450  0.99570585  0.15692596    -0.22300
C98         C  0.26119030  0.05169382  0.15716604    -0.22300
C99         C  0.25643739  0.99265821  0.32644177    -0.22300
C100        C  0.26020044  0.04864720  0.32673268    -0.22300
C101        C  0.23962995  0.92158457  0.18973949    -0.17700
C102        C  0.22968186  0.92079666  0.29157154    -0.17700
C103        C  0.24021053  0.12202423  0.29290706    -0.17700
C104        C  0.23139591  0.12181770  0.19109032    -0.17700
H105        H  0.19293936  0.82358145  0.21141459     0.15300
H106        H  0.18797033  0.82269939  0.26535444     0.15300
H107        H  0.18199116  0.21482366  0.21620789     0.15300
H108        H  0.19014910  0.21639839  0.27004351     0.15300
H109        H  0.27809799  0.97120807  0.14003715     0.13500
H110        H  0.27289773  0.07805089  0.14058285     0.13500
H111        H  0.26686066  0.96696707  0.34357070     0.13500
H112        H  0.27357761  0.07353703  0.34415262     0.13500
H113        H  0.25809233  0.97485397  0.24173022     0.26800
H114        H  0.26148847  0.07008594  0.24164858     0.26800
N115        N  0.74792115  0.01174052  0.20670327    -0.36000
N116        N  0.74003802  0.92997710  0.25193394    -0.56500
N117        N  0.74781992  0.01876803  0.29341974    -0.36000
N118        N  0.74293012  0.10039249  0.24783226    -0.56500
C119        C  0.73086232  0.96592008  0.19246933     0.27600
C120        C  0.74031404  0.05552968  0.18999921     0.27600
C121        C  0.73922330  0.97472619  0.30992134     0.27600
C122        C  0.73377061  0.06471079  0.30749546     0.27600
C123        C  0.74471965  0.89637490  0.22957643     0.36200
C124        C  0.75269579  0.90061473  0.27491732     0.36200
C125        C  0.75569495  0.13000576  0.22503890     0.36200
C126        C  0.74915367  0.13415492  0.27026098     0.36200
C127        C  0.71173206  0.98150331  0.16668261    -0.21300
C128        C  0.71841459  0.03716086  0.16500251    -0.21300
C129        C  0.71941961  0.99306108  0.33469007    -0.21300
C130        C  0.71537178  0.04890626  0.33309497    -0.21300
C131        C  0.76085427  0.84578009  0.23847251    -0.22300
C132        C  0.76658327  0.84858566  0.26669921    -0.22300
C133        C  0.77065495  0.18238445  0.23333989    -0.22300
C134        C  0.76634566  0.18502847  0.26146330    -0.22300
C135        C  0.73433112  0.91007143  0.20119529    -0.17700
C136        C  0.75112843  0.11188578  0.19666467    -0.17700
C137        C  0.73929069  0.12066797  0.29861130    -0.17700
C138        C  0.74798248  0.91831260  0.30328147    -0.17700
H139        H  0.69352510  0.95557835  0.15069847     0.15300
H140        H  0.70641141  0.06145344  0.14756636     0.15300
H141        H  0.70754919  0.96868374  0.35200516     0.15300
H142        H  0.69963719  0.07464245  0.34910915     0.15300
H143        H  0.76896333  0.81057359  0.22590677     0.13500
H144        H  0.77981962  0.81563946  0.27964405     0.13500
H145        H  0.78408771  0.21555901  0.22054989     0.13500
H146        H  0.77647340  0.22046690  0.27398436     0.13500
H147        H  0.76753452  0.01275733  0.22599375     0.26800
H148        H  0.76621273  0.01785549  0.27432728     0.26800
C149        C  0.20471949  0.80135485  0.38015844     0.30600
C150        C  0.27664362  0.74874075  0.34807205     0.30600
C151        C  0.18143262  0.74560611  0.36850238    -0.05600
C152        C  0.21946091  0.83093675  0.35260600    -0.06300
C153        C  0.26289188  0.78712986  0.39373859    -0.06200
C154        C  0.21889931  0.71709919  0.35244016    -0.05600
C155        C  0.25536784  0.80288935  0.33625013    -0.06300
C156        C  0.29795494  0.75953654  0.37782460    -0.06200
C157        C  0.19007355  0.66862755  0.34434712    -0.31600
N158        N  0.13640425  0.66730233  0.35449681     0.14900
C159        C  0.13072840  0.71593611  0.36763561    -0.31600
H160        H  0.09169878  0.72931003  0.37562963     0.16800
C161        C  0.25903370  0.83046193  0.31146262    -0.30600
N162        N  0.22937261  0.87724562  0.31241836     0.13600
C163        C  0.20309103  0.87645391  0.33717422    -0.30600
C164        C  0.34444368  0.74511323  0.39447896    -0.30900
N165        N  0.33997193  0.76584207  0.42043281     0.14100
H166        H  0.37936767  0.72113395  0.38791997     0.16700
C167        C  0.29027105  0.79237609  0.41975309    -0.30900
H168        H  0.27615301  0.81505334  0.43700302     0.16800
H169        H  0.17363021  0.90673668  0.34352350     0.16800
H170        H  0.20693358  0.63690382  0.33169722     0.16800
H171        H  0.28212358  0.81710714  0.29391707     0.16800
N172        N  0.07770253  0.52092335  0.35388402    -0.36000
N173        N  0.98997997  0.43399453  0.36487106    -0.56500
N174        N  0.90103268  0.51693068  0.36418616    -0.36000
N175        N  0.98961716  0.60406127  0.35928144    -0.56500
C176        C  0.10994443  0.47715145  0.36014282     0.27600
C177        C  0.11003299  0.56714643  0.35817632     0.27600
C178        C  0.87016883  0.47210663  0.37173051     0.27600
C179        C  0.86962614  0.56213404  0.36834248     0.27600
C180        C  0.03459927  0.40361715  0.35712341     0.36200
C181        C  0.94273756  0.40097862  0.36355427     0.36200
C182        C  0.03427913  0.63545186  0.35105880     0.36200
C183        C  0.94192362  0.63366218  0.35559414     0.36200
C184        C  0.16291728  0.49609728  0.36880703    -0.21300
C185        C  0.16306303  0.55211707  0.36754575    -0.21300
C186        C  0.81843209  0.48948185  0.38068354    -0.21300
C187        C  0.81812738  0.54550715  0.37861445    -0.21300
C188        C  0.01475531  0.35167282  0.35038518    -0.22300
C189        C  0.95753820  0.34989355  0.35476550    -0.22300
C190        C  0.01423891  0.68442514  0.34161957    -0.22300
C191        C  0.95658145  0.68349260  0.34468736    -0.22300
C192        C  0.09346788  0.42054950  0.35784836    -0.17700
C193        C  0.09324422  0.62241182  0.35367335    -0.17700
C194        C  0.88522725  0.61784984  0.36253199    -0.17700
C195        C  0.88601785  0.41574038  0.36973134    -0.17700
H196        H  0.19757875  0.47226335  0.37633389     0.15300
H197        H  0.19812258  0.57855098  0.37375515     0.15300
H198        H  0.78420837  0.46447050  0.38816186     0.15300
H199        H  0.78369805  0.57099344  0.38432551     0.15300
H200        H  0.03867440  0.31823643  0.34265328     0.13500
H201        H  0.92974183  0.31518169  0.35097389     0.13500
H202        H  0.03854501  0.71757294  0.33314052     0.13500
H203        H  0.92850789  0.71576362  0.33904115     0.13500
H204        H  0.03712878  0.51899880  0.34523793     0.26800
H205        H  0.93978430  0.51645088  0.35477910     0.26800
C206        C  0.69903293  0.30053383  0.35511934     0.30600
C207        C  0.76258555  0.23798402  0.38782061     0.30600
C208        C  0.75872106  0.32580715  0.36355744    -0.05600
C209        C  0.67273149  0.28737918  0.38358797    -0.06300
C210        C  0.71623957  0.24455520  0.34223914    -0.06200
C211        C  0.79104833  0.29483605  0.38145072    -0.05600
C212        C  0.70580582  0.25576827  0.40005299    -0.06300
C213        C  0.74740371  0.21338057  0.35928622    -0.06200
C214        C  0.84118521  0.32572513  0.38696338    -0.31600
N215        N  0.84160720  0.37247251  0.37177950     0.14900
C216        C  0.79225007  0.37116946  0.35702387    -0.31600
H217        H  0.78358725  0.40038377  0.34144864     0.16800
C218        C  0.67886226  0.24971463  0.42511934    -0.30600
N219        N  0.62892992  0.27617816  0.42483999     0.13600
C220        C  0.62527808  0.29977656  0.39930639    -0.30600
C221        C  0.76002193  0.16549095  0.34519478    -0.30900
N222        N  0.73641826  0.16516751  0.31944476     0.14100
H223        H  0.78574850  0.13334496  0.35326328     0.16700
C224        C  0.71008907  0.21413418  0.31743199    -0.30900
H225        H  0.68755471  0.22659647  0.29915842     0.16800
H226        H  0.59069255  0.32459134  0.39247069     0.16800
H227        H  0.87515183  0.31445146  0.40074944     0.16800
H228        H  0.69457926  0.22664173  0.44231268     0.16800
N229        N  0.48620845  0.75178931  0.45177910    -0.36000
N230        N  0.57677877  0.76028852  0.49457714    -0.56500
N231        N  0.48271777  0.75789041  0.03553326    -0.36000
N232        N  0.39961009  0.76765302  0.49462837    -0.56500
C233        C  0.53317410  0.76055682  0.43661962     0.27600
C234        C  0.44082976  0.76877025  0.43666230     0.27600
C235        C  0.52962336  0.77418343  0.05021784     0.27600
C236        C  0.43717702  0.76919383  0.05093302     0.27600
C237        C  0.60727615  0.74386157  0.47266314     0.36200
C238        C  0.60330566  0.75359426  0.01592416     0.36200
C239        C  0.36544331  0.75956772  0.47177050     0.36200
C240        C  0.36203365  0.75149725  0.01533474     0.36200
C241        C  0.51735142  0.78419966  0.41212538    -0.21300
C242        C  0.45980163  0.78967429  0.41220998    -0.21300
C243        C  0.51328816  0.79730312  0.07473068    -0.21300
C244        C  0.45538154  0.79368761  0.07527782    -0.18100
C245        C  0.65941466  0.72679222  0.48234835    -0.22300
C246        C  0.65543074  0.73480547  0.00854263    -0.22300
C247        C  0.31114992  0.74811001  0.48033705    -0.22300
C248        C  0.30849921  0.73575554  0.00590671    -0.22300
C249        C  0.59016427  0.74801475  0.44403187    -0.17700
C250        C  0.38238509  0.76405010  0.44340904    -0.17700
C251        C  0.37955680  0.75739604  0.04385466    -0.17700
C252        C  0.58687114  0.76435161  0.04355198    -0.17700
H253        H  0.54455956  0.79821422  0.39614510     0.15300
H254        H  0.43505741  0.80844873  0.39616248     0.15300
H255        H  0.54028352  0.81501034  0.09077348     0.15300
H256        H  0.42969883  0.80854267  0.09161272     0.15300
H257        H  0.69302306  0.71071281  0.47035618     0.13500
H258        H  0.69020490  0.72424529  0.02207233     0.13500
H259        H  0.27422867  0.73884080  0.46756975     0.13500
H260        H  0.27322062  0.72295111  0.01806502     0.13500
H261        H  0.48472915  0.73125429  0.47030085     0.26800
H262        H  0.48214861  0.73524697  0.01741399     0.26800
N263        N  0.57407173  0.27163650  0.49858878    -0.36000
N264        N  0.48287273  0.27690601  0.45556353    -0.56500
N265        N  0.39473142  0.27554075  0.49930723    -0.36000
N266        N  0.48506850  0.28167102  0.04314099    -0.56500
C267        C  0.60500388  0.28192194  0.47566830     0.27600
C268        C  0.60534385  0.28182749  0.02153028     0.27600
C269        C  0.36204120  0.28219380  0.47573991     0.27600
C270        C  0.36387816  0.28718796  0.02345562     0.27600
C271        C  0.52830026  0.26638612  0.43973920     0.36200
C272        C  0.43558189  0.26403408  0.44007820     0.36200
C273        C  0.53194719  0.26453573  0.05721002     0.36200
C274        C  0.43942100  0.27255715  0.05939940     0.36200
C275        C  0.65892013  0.29807440  0.48440653    -0.21300
C276        C  0.65749972  0.30195104  0.01367071    -0.21300
C277        C  0.30969341  0.29907084  0.48397219    -0.21300
C278        C  0.31186402  0.30443404  0.01361926    -0.21300
C279        C  0.50952440  0.24595892  0.41457120    -0.22300
C280        C  0.45161845  0.24411196  0.41484646    -0.22300
C281        C  0.51521152  0.24316900  0.08188817    -0.22300
C282        C  0.45759641  0.24897007  0.08351106    -0.22300
C283        C  0.58676840  0.27567017  0.44708959    -0.17700
C284        C  0.59022038  0.27090422  0.04937060    -0.17700
C285        C  0.38120167  0.28346351  0.05261152    -0.17700
C286        C  0.37788773  0.27316448  0.44706177    -0.17700
H287        H  0.69357087  0.31029764  0.47171365     0.15300
H288        H  0.69255711  0.31483137  0.02693630     0.15300
H289        H  0.27433720  0.30892734  0.47067640     0.15300
H290        H  0.27788180  0.31959082  0.02567095     0.15300
H291        H  0.53479782  0.23234401  0.39781808     0.13500
H292        H  0.42447185  0.22902614  0.39822157     0.13500
H293        H  0.54197956  0.22397013  0.09691835     0.13500
H294        H  0.43174142  0.23493045  0.10005405     0.13500
H295        H  0.53324446  0.25544687  0.49869849     0.26800
H296        H  0.43514023  0.26011080  0.49973925     0.26800
C297        C  0.77092052  0.78802470  0.38990102     0.30600
C298        C  0.70415795  0.73699881  0.35161769     0.30600
C299        C  0.79702094  0.73690532  0.37684599    -0.05600
C300        C  0.71192770  0.76856358  0.39945735    -0.06300
C301        C  0.75698196  0.82355803  0.36385224    -0.06200
C302        C  0.76172083  0.70878107  0.35862503    -0.05600
C303        C  0.67730346  0.74111332  0.38073899    -0.06300
C304        C  0.72250625  0.79624833  0.34503818    -0.06200
C305        C  0.78968055  0.66069839  0.35201997    -0.31600
N306        N  0.84226410  0.66054706  0.36427350     0.14900
C307        C  0.84724720  0.70818003  0.37882672    -0.31600
H308        H  0.88465107  0.72095383  0.39043735     0.16800
C309        C  0.62860898  0.72696418  0.39567634    -0.30600
N310        N  0.63285585  0.74705140  0.42222597     0.13600
C311        C  0.68403793  0.77241555  0.42415761    -0.30600
C312        C  0.71454151  0.82920675  0.32233726    -0.30900
N313        N  0.74471144  0.87641720  0.32517829     0.14100
H314        H  0.68891801  0.81858832  0.30437187     0.16700
C315        C  0.77075305  0.87362535  0.35087651    -0.30900
H316        H  0.79933935  0.90460695  0.35930109     0.16800
H317        H  0.69984294  0.79357984  0.44233668     0.16800
H318        H  0.77288187  0.62828567  0.33890868     0.16800
H319        H  0.59257043  0.70388607  0.38766390     0.16800
C320        C  0.77620852  0.23239707  0.10724490     0.30600
C321        C  0.70700823  0.28374230  0.14088999     0.30600
C322        C  0.79726898  0.29097091  0.11668388    -0.05600
C323        C  0.71658480  0.24597974  0.09448351    -0.06300
C324        C  0.76387461  0.20187039  0.13474848    -0.06200
C325        C  0.76163436  0.31758529  0.13438749    -0.05600
C326        C  0.68245515  0.27273841  0.11170499    -0.06300
C327        C  0.72854215  0.22920190  0.15130561    -0.06200
C328        C  0.78447263  0.37037058  0.13839322    -0.31600
N329        N  0.83329582  0.37652703  0.12425404     0.14900
C330        C  0.83901006  0.32928350  0.10989735    -0.31600
H331        H  0.87051850  0.32448174  0.09471385     0.16800
C332        C  0.63388682  0.28692145  0.09688783    -0.30600
N333        N  0.63547205  0.26720004  0.07078181     0.13600
C334        C  0.68695834  0.24330193  0.06902639    -0.30600
C335        C  0.72016948  0.19919037  0.17493333    -0.30900
N336        N  0.75033443  0.15296374  0.17436795     0.14100
H337        H  0.69334773  0.21066425  0.19153667     0.16700
C338        C  0.77709056  0.15399452  0.14946020    -0.30900
H339        H  0.80472001  0.12267656  0.14246969     0.16800
H340        H  0.70235282  0.22628206  0.05031049     0.16800
H341        H  0.76652048  0.40222623  0.15043391     0.16800
H342        H  0.59988363  0.31071177  0.10468154     0.16800
C343        C  0.27889690  0.30606841  0.35005794     0.30600
C344        C  0.20317241  0.24542927  0.37753086     0.30600
C345        C  0.21981804  0.33226540  0.35343082    -0.05600
C346        C  0.26282843  0.24806485  0.33636410    -0.06300
C347        C  0.29721400  0.29058289  0.38044616    -0.06200
C348        C  0.18268095  0.30101260  0.36800228    -0.05600
C349        C  0.22525952  0.21763101  0.35132396    -0.06300
C350        C  0.25924105  0.25872825  0.39437280    -0.06200
C351        C  0.13393498  0.33015673  0.37150015    -0.31600
N352        N  0.13756380  0.37852707  0.35830678     0.14900
C353        C  0.19008342  0.37957257  0.34677824    -0.31600
H354        H  0.20543942  0.41207918  0.33412272     0.16800
C355        C  0.21604480  0.16736519  0.33796054    -0.30600
N356        N  0.24366796  0.16584209  0.31406453     0.13600
C357        C  0.27222267  0.21448424  0.31288617    -0.30600
C358        C  0.28527436  0.24753752  0.42016833    -0.30900
N359        N  0.33569596  0.27529005  0.42359783     0.14100
H360        H  0.27050746  0.21824626  0.43464544     0.16700
C361        C  0.34317877  0.30070203  0.39893916    -0.30900
H362        H  0.38044467  0.32467925  0.39449502     0.16800
H363        H  0.29669144  0.22316939  0.29531488     0.16800
H364        H  0.09866820  0.31700037  0.38359199     0.16800
H365        H  0.19055625  0.13384011  0.34487853     0.16800
C366        C  0.26397928  0.73883302  0.13586970     0.30600
C367        C  0.20699110  0.80418200  0.10085695     0.30600
C368        C  0.20356877  0.71912733  0.12730463    -0.05600
C369        C  0.25587553  0.79810300  0.14624876    -0.06300
C370        C  0.29300435  0.74788533  0.10727279    -0.06200
C371        C  0.17276903  0.75095155  0.10912543    -0.05600
C372        C  0.22424885  0.82932565  0.12928996    -0.06300
C373        C  0.26136288  0.77960047  0.08971483    -0.06200
C374        C  0.12243540  0.71944344  0.10421303    -0.31600
N375        N  0.12234660  0.67285271  0.11922211     0.14900
C376        C  0.17215526  0.67279878  0.13330638    -0.31600
H377        H  0.18532265  0.64060724  0.14678622     0.16800
C378        C  0.21471697  0.87816930  0.14326719    -0.30600
N379        N  0.24156089  0.87859582  0.16832724     0.13600
C380        C  0.26759154  0.82963996  0.17002082    -0.30600
C381        C  0.28830371  0.78397222  0.06486210    -0.30900
N382        N  0.33758143  0.75729770  0.06589503     0.14100
H383        H  0.27373849  0.80732895  0.04752657     0.16700
C384        C  0.34147796  0.73610302  0.09197406    -0.30900
H385        H  0.37774794  0.71477098  0.09951902     0.16800
H386        H  0.29202970  0.81689868  0.18772974     0.16800
H387        H  0.08847434  0.72671422  0.08998929     0.16800
H388        H  0.18891903  0.91072800  0.13569319     0.16800
O389        O  0.09692106  0.18492166  0.99069115    -0.74700
O390        O  0.16862096  0.13311200  0.00204064    -0.53600
C391        C  0.13968070  0.17554242  0.00582925     0.79100
O392        O  0.94532971  0.96142458  0.06076970    -0.59300
O393        O  0.86811235  0.98877336  0.03748481    -0.52300
C394        C  0.89252091  0.95936444  0.05541517     0.71100
O395        O  0.11582730  0.03678477  0.06344215    -0.73800
O396        O  0.17655698  0.01911542  0.03052539    -0.54400
C397        C  0.15692528  0.01050501  0.05429313     0.77100
O398        O  0.90305150  0.17408715  0.99849545    -0.59000
O399        O  0.85180532  0.09958982  0.00942998    -0.52100
C400        C  0.86196459  0.15041503  0.01053228     0.73700
Zr401      Zr  0.00293240  0.15221885  0.00103526     2.54700
O402        O  0.01312519  0.20846725  0.04210690    -0.79500
O403        O  0.99059668  0.23629797  0.97598821    -0.92900
Zr404      Zr  0.01815857  0.02462505  0.04981473     2.64700
O405        O  0.97163292  0.07913384  0.08426375    -0.97900
O406        O  0.04659504  0.99143786  0.09509515    -0.80000
O407        O  0.06472505  0.09356994  0.02512882    -0.83300
O408        O  0.95688671  0.08549433  0.02840540    -2.18000
O409        O  0.89566060  0.04728776  0.45079498    -0.66700
O410        O  0.82012638  0.04954939  0.47238961    -0.51300
C411        C  0.84536057  0.06256967  0.45102901     0.72100
O412        O  0.10403243  0.90545929  0.46433617    -0.59600
O413        O  0.17116478  0.97194454  0.47021385    -0.51600
C414        C  0.15508047  0.92384585  0.46407887     0.73900
O415        O  0.92019925  0.88033396  0.48575487    -0.71000
O416        O  0.85349873  0.94390375  0.48456591    -0.49700
C417        C  0.86961040  0.89568010  0.48104588     0.75300
O418        O  0.07571275  0.02748529  0.41438963    -0.66300
O419        O  0.15596307  0.04603326  0.43570045    -0.53500
C420        C  0.12080395  0.05673230  0.41671448     0.73600
Zr421      Zr  0.98553813  0.05769241  0.43073426     2.77500
O422        O  0.93820397  0.02703673  0.38836702    -0.97100
O423        O  0.99509561  0.14113162  0.40472034    -0.77900
Zr424      Zr  0.00822220  0.92548125  0.47433472     2.70100
O425        O  0.99021899  0.87545216  0.43166882    -0.79200
O426        O  0.02569786  0.83833885  0.49547490    -0.98200
Zr427      Zr  0.11391365  0.04557719  0.47957168     2.21500
Zr428      Zr  0.90490631  0.02336144  0.49698497     2.11100
O429        O  0.94203560  0.98424037  0.45512571    -2.46900
O430        O  0.05125415  0.99542914  0.44858322    -0.78900
O431        O  0.94319590  0.09626055  0.46997134    -0.71100
O432        O  0.07048306  0.97283890  0.50395380    -2.32100
O433        O  0.04650784  0.10821294  0.46095169    -2.28300
O434        O  0.97480582  0.96943622  0.51102951    -0.72900
H435        H  0.93262064  0.10188691  0.04149715     0.79100
H436        H  0.09507898  0.94562304  0.51033660     0.80200
H437        H  0.91731411  0.96112770  0.44362292     0.82400
H438        H  0.06130345  0.13702354  0.45017797     0.80000
H439        H  0.01132422  0.98250597  0.10463048     0.43100
H440        H  0.05313178  0.82033978  0.48365546     0.42000
H441        H  0.02385451  0.85283260  0.42953874     0.41700
H442        H  0.93594057  0.98706274  0.39002908     0.39600
H443        H  0.00308502  0.17056944  0.41825104     0.42800
H444        H  0.96474395  0.25821132  0.98695608     0.37500
H445        H  0.01210441  0.24626269  0.03552553     0.43700
H446        H  0.93545799  0.05979590  0.08756700     0.40100
H447        H  0.89876565  0.03872442  0.39005111     0.45000
H448        H  0.96832364  0.22559497  0.95930915     0.43700
H449        H  0.99339772  0.07588404  0.10168718     0.43900
H450        H  0.04715419  0.84794912  0.51251958     0.44200
O451        O  0.51109014  0.42881476  0.32531140    -0.74700
O452        O  0.51183294  0.36418166  0.29342662    -0.53600
C453        C  0.49285062  0.38318042  0.31561821     0.79100
O454        O  0.32504568  0.56982379  0.23207410    -0.59300
O455        O  0.38115100  0.64316585  0.24218188    -0.52300
C456        C  0.33827132  0.62036566  0.23026846     0.71100
O457        O  0.34958650  0.39638523  0.26521016    -0.73800
O458        O  0.41747169  0.34017320  0.25454379    -0.54400
C459        C  0.36712850  0.35581584  0.25146736     0.77100
O460        O  0.48436793  0.60317597  0.31858312    -0.59000
O461        O  0.46831395  0.65974122  0.28283917    -0.52100
C462        C  0.46705592  0.64718965  0.30822256     0.73700
Zr463      Zr  0.50632394  0.51520056  0.30187359     2.54700
O464        O  0.49174341  0.50986097  0.35091603    -0.79500
O465        O  0.60144223  0.54072505  0.31768005    -0.92900
Zr466      Zr  0.36586998  0.49202799  0.25444360     2.64700
O467        O  0.31362225  0.51464576  0.29517002    -0.97900
O468        O  0.27193941  0.47455160  0.23471924    -0.80000
O469        O  0.44021478  0.45333035  0.28037480    -0.83300
O470        O  0.42844589  0.55386296  0.27735782    -2.18000
O471        O  0.62444849  0.60592883  0.25239143    -0.66700
O472        O  0.55464782  0.66540101  0.24354359    -0.51300
C473        C  0.60352494  0.65363576  0.25315124     0.72100
O474        O  0.50917128  0.41464986  0.17563457    -0.59600
O475        O  0.48668747  0.35145522  0.20691542    -0.51600
C476        C  0.51270750  0.36711554  0.18580429     0.73900
O477        O  0.47000653  0.58482864  0.16731703    -0.71000
O478        O  0.47188452  0.65242080  0.19940052    -0.49700
C479        C  0.48073238  0.63400288  0.17524889     0.75300
O480        O  0.65175194  0.43382457  0.24710137    -0.66300
O481        O  0.58704353  0.36705253  0.24336888    -0.53500
C482        C  0.63126042  0.38838228  0.25492275     0.73600
Zr483      Zr  0.60070249  0.51536398  0.23510376     2.77500
O484        O  0.62580209  0.51697368  0.18692099    -0.97100
O485        O  0.70181129  0.53536596  0.23487005    -0.77900
Zr486      Zr  0.46085434  0.49572734  0.18829146     2.70100
O487        O  0.46795130  0.49179574  0.13859735    -0.79200
O488        O  0.36769008  0.47056112  0.16907170    -0.98200
Zr489      Zr  0.49407359  0.40267482  0.24898417     2.21500
Zr490      Zr  0.47372580  0.60520851  0.24234817     2.11100
O491        O  0.52800078  0.55682358  0.21014176    -2.46900
O492        O  0.53524573  0.45522571  0.21386845    -0.78900
O493        O  0.54896427  0.56552636  0.26733498    -0.71100
O494        O  0.41899122  0.44222730  0.22250434    -2.32100
O495        O  0.55804374  0.46534762  0.27113877    -2.28300
O496        O  0.40935530  0.54404865  0.21987063    -0.72900
H497        H  0.40421648  0.57517586  0.28853781     0.79100
H498        H  0.39638653  0.41550807  0.21262467     0.80200
H499        H  0.54930144  0.57985813  0.19824501     0.82400
H500        H  0.58375806  0.44948799  0.28400283     0.80000
H501        H  0.24619029  0.47644216  0.25031748     0.43100
H502        H  0.36878918  0.43091547  0.16576515     0.42000
H503        H  0.43451954  0.51079433  0.13126927     0.41700
H504        H  0.64773919  0.55125535  0.18493234     0.39600
H505        H  0.71844855  0.50601727  0.22395091     0.42800
H506        H  0.61241344  0.51173374  0.33052001     0.37500
H507        H  0.52883744  0.51869433  0.35977155     0.43700
H508        H  0.28620275  0.54191750  0.28894707     0.40100
H509        H  0.65375725  0.48813655  0.18475335     0.45000
H510        H  0.59687003  0.57316808  0.32945154     0.43700
H511        H  0.29036593  0.48171992  0.29863093     0.43900
H512        H  0.34094837  0.47513655  0.18411839     0.44200
C513        C  0.23648440  0.89334713  0.08195728    -0.05100
C514        C  0.19259698  0.85289057  0.08331713     0.00800
C515        C  0.13876882  0.86585047  0.07356548    -0.07800
C516        C  0.12761898  0.92002580  0.06880747    -0.05200
C517        C  0.17088447  0.95959313  0.06738298     0.00800
C518        C  0.22645768  0.94631786  0.07389266    -0.07700
C519        C  0.27372675  0.98877820  0.07424397     0.62700
H520        H  0.27864847  0.88402585  0.08918743     0.13400
H521        H  0.08455034  0.93014432  0.06407909     0.13400
C522        C  0.09462260  0.82434713  0.06524145     0.62900
F523        F  0.32177932  0.97062612  0.08762112    -0.22200
F524        F  0.25675308  0.03505325  0.08770851    -0.19600
F525        F  0.28727433  0.00171006  0.04770893    -0.19300
F526        F  0.06233816  0.81286603  0.08760716    -0.19300
F527        F  0.11959806  0.77883530  0.05459010    -0.19600
F528        F  0.05977094  0.84393347  0.04475499    -0.22300
C529        C  0.25568004  0.71087110  0.18443222    -0.05100
C530        C  0.28350097  0.70266108  0.15920750     0.00800
C531        C  0.31746289  0.65629885  0.15705416    -0.07800
C532        C  0.33553765  0.63222344  0.18138492    -0.05200
C533        C  0.31478781  0.64774570  0.20682427     0.00800
C534        C  0.27183150  0.68508396  0.20852651    -0.07700
C535        C  0.24377646  0.69730684  0.23541863     0.62700
H536        H  0.22083268  0.73831922  0.18527445     0.13400
H537        H  0.36407886  0.59863986  0.18038520     0.13400
C538        C  0.32896154  0.62505284  0.13094628     0.62900
F539        F  0.19761026  0.73002667  0.23180771    -0.22200
F540        F  0.28212316  0.72338243  0.25311439    -0.19600
F541        F  0.22521146  0.64959397  0.24719819    -0.19300
F542        F  0.38462159  0.63309946  0.12404526    -0.19300
F543        F  0.29347337  0.63858501  0.10943796    -0.19600
F544        F  0.32011202  0.57009264  0.13519191    -0.22300
C545        C  0.41205598  0.39153220  0.34606415    -0.05100
C546        C  0.44048302  0.35929099  0.32697556     0.00800
C547        C  0.40937291  0.31745889  0.31290701    -0.07800
C548        C  0.35084336  0.31867688  0.31428229    -0.05200
C549        C  0.32474381  0.34098974  0.33678156     0.00800
C550        C  0.35427760  0.38376784  0.35106757    -0.07700
C551        C  0.32473448  0.42563660  0.36845455     0.62700
H552        H  0.43464991  0.42457446  0.35631307     0.13400
H553        H  0.32560477  0.29971514  0.29852353     0.13400
C554        C  0.43455459  0.26537168  0.30156855     0.62900
F555        F  0.36284982  0.46107765  0.38156594    -0.22200
F556        F  0.29233391  0.40209476  0.38834583    -0.19600
F557        F  0.29066281  0.45601593  0.35155585    -0.19300
F558        F  0.47792786  0.27397344  0.28385900    -0.19300
F559        F  0.39457358  0.23413292  0.28734166    -0.19600
F560        F  0.45337062  0.23452698  0.32323008    -0.22300
C561        C  0.14739905  0.15110046  0.42546312    -0.05100
C562        C  0.12394655  0.11237205  0.40685968     0.00800
C563        C  0.10623641  0.12879256  0.38043610    -0.07800
C564        C  0.11880712  0.18265678  0.37315574    -0.05200
C565        C  0.15556072  0.21440275  0.39015114     0.00800
C566        C  0.15742359  0.20384877  0.41779614    -0.07700
C567        C  0.15866412  0.24818518  0.43913191     0.62700
H568        H  0.15628625  0.14063832  0.44650972     0.13400
H569        H  0.11031083  0.19600911  0.35243279     0.13400
C570        C  0.08154119  0.08902992  0.35922968     0.62900
F571        F  0.19330006  0.23332670  0.46074905    -0.22200
F572        F  0.10447901  0.25434236  0.44808993    -0.19600
F573        F  0.17694092  0.29773110  0.42929442    -0.19300
F574        F  0.07319953  0.11320539  0.33402469    -0.19300
F575        F  0.03023134  0.06893491  0.36751477    -0.19600
F576        F  0.11776538  0.04640107  0.35588461    -0.22300
C577        C  0.87066329  0.21148802  0.04946049    -0.05100
C578        C  0.83462616  0.17813353  0.03297883     0.00800
C579        C  0.78643896  0.15333230  0.04462834    -0.07800
C580        C  0.77844236  0.16015682  0.07257101    -0.05200
C581        C  0.80957687  0.19999451  0.08737904     0.00800
C582        C  0.86133478  0.21851701  0.07733632    -0.07700
C583        C  0.91278988  0.22592997  0.09616797     0.62700
H584        H  0.91056925  0.22537980  0.04167084     0.13400
H585        H  0.74135431  0.14203538  0.08164142     0.13400
C586        C  0.74198038  0.12171845  0.02766009     0.62900
F587        F  0.94335092  0.17922934  0.09519703    -0.22200
F588        F  0.89875048  0.23434336  0.12313421    -0.19600
F589        F  0.94705647  0.26833462  0.08762467    -0.19300
F590        F  0.75498385  0.06736731  0.02657229    -0.19300
F591        F  0.73856260  0.14215525  0.00140378    -0.19600
F592        F  0.68924520  0.12589422  0.03894472    -0.22300
C593        C  0.61071246  0.26834839  0.15638685    -0.05100
C594        C  0.66107706  0.29995448  0.15899755     0.00800
C595        C  0.66493070  0.34097056  0.17874238    -0.07800
C596        C  0.61436311  0.36387152  0.18581456    -0.05200
C597        C  0.56221131  0.33845302  0.17849059     0.00800
C598        C  0.56023207  0.28781117  0.16534499    -0.07700
C599        C  0.50647325  0.25481014  0.16069457     0.62700
H600        H  0.61070163  0.23012455  0.14524688     0.13400
H601        H  0.61582372  0.40059750  0.19797321     0.13400
C602        C  0.71714032  0.35249275  0.19667592     0.62900
F603        F  0.51337031  0.21125930  0.14316924    -0.22200
F604        F  0.46439967  0.28668390  0.14986431    -0.19600
F605        F  0.49086090  0.23409611  0.18536110    -0.19300
F606        F  0.73103115  0.40718044  0.19657262    -0.19300
F607        F  0.76318829  0.32299856  0.18928372    -0.19600
F608        F  0.70587670  0.33731530  0.22308676    -0.22300
C609        C  0.70862825  0.69936221  0.30461254    -0.05100
C610        C  0.67289857  0.71619699  0.32584643     0.00800
C611        C  0.61731839  0.73219239  0.31758176    -0.07800
C612        C  0.59712411  0.71676540  0.29132991    -0.05200
C613        C  0.63152645  0.69185901  0.27224208     0.00800
C614        C  0.68933936  0.68821834  0.27806230    -0.07700
C615        C  0.73213599  0.67260710  0.25698245     0.62700
H616        H  0.75377025  0.69909190  0.30764977     0.13400
H617        H  0.55325637  0.72297779  0.28593935     0.13400
C618        C  0.57841171  0.76802467  0.33388172     0.62900
F619        F  0.77499636  0.71154385  0.25675216    -0.22200
F620        F  0.70869254  0.66876256  0.23079407    -0.19600
F621        F  0.75511150  0.62341983  0.26397036    -0.19300
F622        F  0.54847971  0.80113431  0.31627567    -0.19300
F623        F  0.60652326  0.80256746  0.35209134    -0.19600
F624        F  0.54037257  0.73584988  0.34764290    -0.22300
C625        C  0.78014282  0.86318080  0.42302378    -0.05100
C626        C  0.80037975  0.81209198  0.41509183     0.00800
C627        C  0.82580781  0.77995377  0.43653453    -0.07800
C628        C  0.84989289  0.80785193  0.45898049    -0.05200
C629        C  0.83098287  0.85907269  0.46586389     0.00800
C630        C  0.78644637  0.88083436  0.45019565    -0.07700
C631        C  0.73833117  0.90946306  0.46394145     0.62700
H632        H  0.75034936  0.88362119  0.40973277     0.13400
H633        H  0.87936472  0.78775647  0.47264058     0.13400
C634        C  0.82069843  0.71868218  0.44094558     0.62900
F635        F  0.69124013  0.91194672  0.44668867    -0.22200
F636        F  0.75333799  0.96150381  0.47186248    -0.19600
F637        F  0.72309251  0.88081887  0.48693340    -0.19300
F638        F  0.87233250  0.69510928  0.43728850    -0.19300
F639        F  0.78009434  0.69254638  0.42473464    -0.19600
F640        F  0.80538241  0.70912969  0.46769869    -0.22300
C641        C  0.74982963  0.15104227  0.41124864    -0.05100
C642        C  0.78850259  0.19283363  0.40366899     0.00800
C643        C  0.84609146  0.17984342  0.40342964    -0.07800
C644        C  0.86319766  0.13846998  0.42075035    -0.05200
C645        C  0.82420957  0.10178756  0.43177345     0.00800
C646        C  0.76704384  0.10463753  0.42452197    -0.07700
C647        C  0.72536871  0.05835507  0.42929489     0.62700
H648        H  0.70559101  0.15369058  0.40561778     0.13400
H649        H  0.90732617  0.13271204  0.42446753     0.13400
C650        C  0.88853776  0.19946879  0.38264256     0.62900
F651        F  0.74883764  0.00977498  0.42163080    -0.22200
F652        F  0.67599404  0.06391620  0.41393759    -0.19600
F653        F  0.71172763  0.05691370  0.45660044    -0.19300
F654        F  0.93026212  0.23086517  0.39563500    -0.19300
F655        F  0.86554010  0.22820397  0.36129298    -0.19600
F656        F  0.91249137  0.15482366  0.37058636    -0.22300
C657        C  0.62214762  0.31961317  0.29060884    -0.05100
C658        C  0.64909371  0.36785278  0.28211460     0.00800
C659        C  0.67810273  0.40156209  0.30221750    -0.07800
C660        C  0.67754430  0.38485565  0.32950444    -0.05200
C661        C  0.66115611  0.33214890  0.33609970     0.00800
C662        C  0.62440285  0.30344870  0.31793441    -0.07700
C663        C  0.58342020  0.25997724  0.32785169     0.62700
H664        H  0.59602439  0.29616536  0.27614990     0.13400
H665        H  0.69420365  0.41106634  0.34572672     0.13400
C666        C  0.71189751  0.45319301  0.29562107     0.62900
F667        F  0.53987457  0.28586920  0.34031259    -0.22200
F668        F  0.60637181  0.22517532  0.34676048    -0.19600
F669        F  0.56263789  0.22818692  0.30626035    -0.19300
F670        F  0.67729626  0.49380758  0.28655473    -0.19300
F671        F  0.75067300  0.44161857  0.27582230    -0.19600
F672        F  0.74150736  0.47408370  0.31825528    -0.22300
C673        C  0.17752683  0.83461297  0.45245796    -0.05100
C674        C  0.19548157  0.88843566  0.45234939     0.00800
C675        C  0.21820584  0.90935902  0.42874135    -0.07800
C676        C  0.19969579  0.88682439  0.40397135    -0.05200
C677        C  0.17640184  0.83315338  0.40241096     0.00800
C678        C  0.16329149  0.80708606  0.42802108    -0.07700
C679        C  0.13608088  0.75100741  0.43113619     0.62700
H680        H  0.16543967  0.81846201  0.47186082     0.13400
H681        H  0.21608735  0.90695987  0.38635465     0.13400
C682        C  0.26371514  0.95336160  0.42946582     0.62900
F683        F  0.12926791  0.73710482  0.45828267    -0.22200
F684        F  0.16900533  0.71131277  0.42013180    -0.19600
F685        F  0.08266059  0.75063173  0.41937658    -0.19300
F686        F  0.27846784  0.96885116  0.45605708    -0.19300
F687        F  0.24579204  0.99810774  0.41516056    -0.19600
F688        F  0.31133246  0.93386467  0.41725750    -0.22300
C689        C  0.33429618  0.67146442  0.33938165    -0.05100
C690        C  0.32605528  0.72627213  0.33380486     0.00800
C691        C  0.37481341  0.75923568  0.32660984    -0.07800
C692        C  0.42176641  0.73216628  0.31766459    -0.05200
C693        C  0.42985294  0.67855903  0.32480823     0.00800
C694        C  0.38806406  0.65075873  0.33963975    -0.07700
C695        C  0.39969161  0.60190174  0.35724616     0.62700
H696        H  0.30119951  0.64752168  0.34853860     0.13400
H697        H  0.45431299  0.75382665  0.30674732     0.13400
C698        C  0.38542327  0.82042283  0.33103448     0.62900
F699        F  0.36247419  0.59866313  0.37860691    -0.22200
F700        F  0.45340999  0.60634632  0.36891418    -0.19600
F701        F  0.39361202  0.55512153  0.34159666    -0.19300
F702        F  0.35433083  0.84276081  0.35157122    -0.19300
F703        F  0.37592829  0.84772646  0.30684940    -0.19600
F704        F  0.44131007  0.83034279  0.33886743    -0.22300
C705        C  0.59151353  0.73727393  0.16122019    -0.05100
C706        C  0.63339267  0.70481638  0.14928969     0.00800
C707        C  0.61474457  0.65290246  0.13833801    -0.07800
C708        C  0.56064737  0.63346884  0.14468728    -0.05200
C709        C  0.52182705  0.66469412  0.15886772     0.00800
C710        C  0.53587506  0.71915513  0.16476089    -0.07700
C711        C  0.49304497  0.76003674  0.17376465     0.62700
H712        H  0.59969464  0.77968881  0.16548039     0.13400
H713        H  0.54960040  0.59173668  0.13941834     0.13400
C714        C  0.64731727  0.61604836  0.11924688     0.62900
F715        F  0.49522485  0.80452537  0.15672211    -0.22200
F716        F  0.50583279  0.77694190  0.20031330    -0.19600
F717        F  0.43841578  0.73913040  0.17239847    -0.19300
F718        F  0.67704525  0.57926222  0.13468965    -0.19300
F719        F  0.68325238  0.64346612  0.10227853    -0.19600
F720        F  0.61037140  0.58701493  0.10189810    -0.22300
C721        C  0.84753517  0.83892996  0.09657167    -0.05100
C722        C  0.78945423  0.84481181  0.09677684     0.00800
C723        C  0.76553195  0.89367972  0.08612202    -0.07800
C724        C  0.80111950  0.92952018  0.07250203    -0.05200
C725        C  0.85854598  0.91981373  0.07010788     0.00800
C726        C  0.88189674  0.87252020  0.08150509    -0.07700
C727        C  0.94151143  0.85443085  0.07671213     0.62700
H728        H  0.86718966  0.80910307  0.10920908     0.13400
H729        H  0.78379763  0.96626035  0.06397308     0.13400
C730        C  0.70482137  0.91315156  0.08841335     0.62900
F731        F  0.94914111  0.80117673  0.08452563    -0.22200
F732        F  0.97950298  0.88673201  0.09169902    -0.19600
F733        F  0.95228294  0.85732067  0.04908057    -0.19300
F734        F  0.70586493  0.96603540  0.09819356    -0.19300
F735        F  0.67120403  0.88371328  0.10567342    -0.19600
F736        F  0.67925422  0.91279658  0.06262325    -0.22300
C737        C  0.28312230  0.35805836  0.22119907    -0.05100
C738        C  0.33525124  0.33647069  0.22700739     0.00800
C739        C  0.35972162  0.30321323  0.20724377    -0.07800
C740        C  0.34284707  0.31008553  0.17966486    -0.05200
C741        C  0.28928012  0.33120980  0.17306951     0.00800
C742        C  0.25524709  0.34690199  0.19625447    -0.07700
C743        C  0.19077096  0.34238546  0.19929084     0.62700
H744        H  0.26080744  0.37653940  0.23782042     0.13400
H745        H  0.36399182  0.28738098  0.16405094     0.13400
C746        C  0.38594618  0.25032715  0.21630693     0.62900
F747        F  0.17782846  0.32506491  0.22539353    -0.22200
F748        F  0.16424574  0.30499970  0.18197094    -0.19600
F749        F  0.16709551  0.39265690  0.19608080    -0.19300
F750        F  0.35336126  0.22724515  0.23640418    -0.19300
F751        F  0.43993909  0.25847820  0.22685424    -0.19600
F752        F  0.38718332  0.21322102  0.19490079    -0.22300
C753        C  0.14693238  0.16544509  0.05473758    -0.05100
C754        C  0.14444068  0.20119301  0.03249912     0.00800
C755        C  0.14015221  0.25758235  0.03750090    -0.07800
C756        C  0.15472714  0.27500062  0.06367972    -0.05200
C757        C  0.16087602  0.23807756  0.08530915     0.00800
C758        C  0.14398115  0.18457876  0.08130349    -0.07700
C759        C  0.10311903  0.15683234  0.10010211     0.62700
H760        H  0.14571155  0.12268379  0.05131468     0.13400
H761        H  0.16644237  0.31736963  0.06672642     0.13400
C762        C  0.12746972  0.30100516  0.01658570     0.62900
F763        F  0.05093522  0.15539575  0.08720278    -0.22200
F764        F  0.09758842  0.18479623  0.12453986    -0.19600
F765        F  0.11863846  0.10418396  0.10520508    -0.19300
F766        F  0.08424614  0.28490699  0.99891306    -0.19300
F767        F  0.17327591  0.30209233  0.49439592    -0.19600
F768        F  0.11007288  0.34802861  0.02932561    -0.22300
C769        C  0.19630831  0.25832633  0.60636071     0.30600
C770        C  0.26175588  0.31280547  0.64387541     0.30600
C771        C  0.17435522  0.31431697  0.61586986    -0.05600
C772        C  0.20717064  0.22592490  0.63352671    -0.06300
C773        C  0.25760283  0.27157921  0.59702298    -0.06200
C774        C  0.20930152  0.34392779  0.63329391    -0.05600
C775        C  0.23947979  0.25537820  0.65232905    -0.06300
C776        C  0.29265324  0.30001385  0.61557764    -0.06200
C777        C  0.18463749  0.39515958  0.63623851    -0.31600
N778        N  0.13359355  0.39587723  0.62240772     0.14900
C779        C  0.12797587  0.34645122  0.60964529    -0.31600
H780        H  0.09221545  0.33430914  0.59662521     0.16800
C781        C  0.24804299  0.22312245  0.67543361    -0.30600
N782        N  0.22292191  0.17355516  0.67198787     0.13600
C783        C  0.19920604  0.17439192  0.64600942    -0.30600
C784        C  0.34297658  0.30942313  0.60040365    -0.30900
N785        N  0.33918273  0.28676945  0.57402825     0.14100
H786        H  0.37940559  0.33235469  0.60821620     0.16700
C787        C  0.28667977  0.26301146  0.57273688    -0.30900
H788        H  0.27008270  0.24008351  0.55523242     0.16800
H789        H  0.17906648  0.13925383  0.63681919     0.16800
H790        H  0.20205626  0.42874752  0.64832208     0.16800
H791        H  0.27197855  0.23484030  0.69367285     0.16800
N792        N  0.07102839  0.53791276  0.62190953    -0.36000
N793        N  0.98474693  0.44861974  0.62229428    -0.56500
N794        N  0.89368325  0.52904044  0.62722728    -0.36000
N795        N  0.97938296  0.61880331  0.62068366    -0.56500
C796        C  0.10405587  0.49387298  0.61765307     0.27600
C797        C  0.10060535  0.58374768  0.61489486     0.27600
C798        C  0.86258830  0.48246859  0.62172147     0.27600
C799        C  0.85990701  0.57268991  0.62306015     0.27600
C800        C  0.03263933  0.42070342  0.62823569     0.36200
C801        C  0.93992036  0.41559642  0.62855671     0.36200
C802        C  0.02580662  0.65263688  0.62343923     0.36200
C803        C  0.93358410  0.64761160  0.62835198     0.36200
C804        C  0.15524260  0.51209894  0.60776017    -0.21300
C805        C  0.15299369  0.56809128  0.60586229    -0.21300
C806        C  0.80856223  0.49715371  0.61376371    -0.21300
C807        C  0.80693074  0.55335246  0.61461711    -0.21300
C808        C  0.01776062  0.37052717  0.63871766    -0.22300
C809        C  0.95977654  0.36726450  0.63880943    -0.22300
C810        C  0.00921239  0.70271454  0.63292583    -0.22300
C811        C  0.95171292  0.69945074  0.63625226    -0.22300
C812        C  0.08975469  0.43786510  0.62307779    -0.17700
C813        C  0.08331810  0.63946071  0.61797892    -0.17700
C814        C  0.87517329  0.62939194  0.62705489    -0.17700
C815        C  0.88107815  0.42719337  0.62461290    -0.17700
H816        H  0.19060484  0.48763699  0.60222330     0.15300
H817        H  0.18650200  0.59420769  0.59856177     0.15300
H818        H  0.77381980  0.47030361  0.60754418     0.15300
H819        H  0.77098879  0.57723799  0.60886987     0.15300
H820        H  0.04573600  0.33942449  0.64599055     0.13500
H821        H  0.93514382  0.33337672  0.64629521     0.13500
H822        H  0.03590413  0.73772079  0.63790146     0.13500
H823        H  0.92645701  0.73174516  0.64417564     0.13500
H824        H  0.03227367  0.53703938  0.63135591     0.26800
H825        H  0.93449794  0.53100227  0.63551061     0.26800
C826        C  0.76218199  0.80707884  0.61425716     0.30600
C827        C  0.68933084  0.74237059  0.64152432     0.30600
C828        C  0.78527529  0.74994667  0.62154711    -0.05600
C829        C  0.74410903  0.82929982  0.64226471    -0.06300
C830        C  0.70818471  0.79092996  0.59779943    -0.06200
C831        C  0.74948718  0.71694040  0.63682288    -0.05600
C832        C  0.70701648  0.79767564  0.65660495    -0.06300
C833        C  0.67084496  0.75962778  0.61192026    -0.06200
C834        C  0.78074432  0.66967601  0.64201862    -0.31600
N835        N  0.83043856  0.67072573  0.62803977     0.14900
C836        C  0.83182462  0.71924511  0.61491378    -0.31600
H837        H  0.86440138  0.73100246  0.60090948     0.16800
C838        C  0.70088066  0.82608905  0.68184010    -0.30600
N839        N  0.73161027  0.87427206  0.68222984     0.13600
C840        C  0.75874121  0.87523977  0.65801212    -0.30600
C841        C  0.62628663  0.74668616  0.59353911    -0.30900
N842        N  0.63548600  0.76887828  0.56845455     0.14100
H843        H  0.58928839  0.72236551  0.59813650     0.16700
C844        C  0.68649340  0.79563463  0.57088145    -0.30900
H845        H  0.70628312  0.81747675  0.55446285     0.16800
H846        H  0.78778212  0.90725362  0.65210972     0.16800
H847        H  0.76909014  0.63754756  0.65569117     0.16800
H848        H  0.67592076  0.81230264  0.69876301     0.16800
N849        N  0.22685143  0.94381797  0.74347237    -0.36000
N850        N  0.22262110  0.02927122  0.70020885    -0.56500
N851        N  0.23258684  0.11306729  0.74358360    -0.36000
N852        N  0.22399393  0.02765313  0.78674513    -0.56500
C853        C  0.21811501  0.91334563  0.72019582     0.27600
C854        C  0.21222105  0.91286682  0.76541595     0.27600
C855        C  0.21742265  0.14358777  0.72138308     0.27600
C856        C  0.22441821  0.14311274  0.76676265     0.27600
C857        C  0.23677006  0.98505117  0.68499433     0.36200
C858        C  0.23205865  0.07427056  0.68461342     0.36200
C859        C  0.23047691  0.98254887  0.80251850     0.36200
C860        C  0.24003033  0.07170586  0.80247015     0.36200
C861        C  0.19704290  0.86279335  0.72746077    -0.21300
C862        C  0.19302562  0.86259455  0.75567678    -0.21300
C863        C  0.19847534  0.19298114  0.73091975    -0.21300
C864        C  0.20342169  0.19290684  0.75916426    -0.21300
C865        C  0.25574709  0.00250833  0.65990397    -0.22300
C866        C  0.25239851  0.05832044  0.65955607    -0.22300
C867        C  0.25076655  0.99830027  0.82828164    -0.22300
C868        C  0.25718023  0.05407614  0.82818485    -0.22300
C869        C  0.23049863  0.92892850  0.69263238    -0.17700
C870        C  0.21905460  0.92723209  0.79404279    -0.17700
C871        C  0.23636002  0.12778187  0.79464874    -0.17700
C872        C  0.22314542  0.12959274  0.69275002    -0.17700
H873        H  0.18520084  0.82939426  0.71383500     0.15300
H874        H  0.17774798  0.82887663  0.76762952     0.15300
H875        H  0.18207421  0.22586653  0.71884722     0.15300
H876        H  0.19156437  0.22567125  0.77258530     0.15300
H877        H  0.27152005  0.97764246  0.64362195     0.13500
H878        H  0.26547268  0.08415940  0.64300756     0.13500
H879        H  0.26149211  0.97238958  0.84528873     0.13500
H880        H  0.27327139  0.07866075  0.84521858     0.13500
H881        H  0.24694812  0.98168669  0.74432364     0.26800
H882        H  0.25238532  0.07585905  0.74304461     0.26800
N883        N  0.74806718  0.01945836  0.70946771    -0.36000
N884        N  0.74404084  0.93668263  0.75431756    -0.56500
N885        N  0.75593965  0.02396811  0.79620455    -0.36000
N886        N  0.74781296  0.10683805  0.75100984    -0.56500
C887        C  0.73050824  0.97373924  0.69525450     0.27600
C888        C  0.73883648  0.06365455  0.69322025     0.27600
C889        C  0.74672821  0.97971826  0.81244518     0.27600
C890        C  0.74219087  0.06959599  0.81052005     0.27600
C891        C  0.74840136  0.90380991  0.73169935     0.36200
C892        C  0.75876235  0.90694418  0.77687248     0.36200
C893        C  0.75886285  0.13713480  0.72825890     0.36200
C894        C  0.75692491  0.13958528  0.77356864     0.36200
C895        C  0.70926925  0.98965789  0.66991299    -0.21300
C896        C  0.71491573  0.04560170  0.66854937    -0.21300
C897        C  0.72703431  0.99758364  0.83731132    -0.21300
C898        C  0.72361621  0.05347198  0.83603792    -0.21300
C899        C  0.76646389  0.85344110  0.73998796    -0.22300
C900        C  0.77357329  0.85554717  0.76813904    -0.22300
C901        C  0.77584431  0.18891753  0.73667744    -0.22300
C902        C  0.77452170  0.19047352  0.76493230    -0.22300
C903        C  0.73582004  0.91777154  0.70360683    -0.17700
C904        C  0.75106311  0.11991229  0.69993989    -0.17700
C905        C  0.74786978  0.12549550  0.80183802    -0.17700
C906        C  0.75470351  0.92356263  0.80536040    -0.17700
H907        H  0.69087372  0.96362703  0.65400044     0.15300
H908        H  0.70156387  0.07023996  0.65146477     0.15300
H909        H  0.71464743  0.97290641  0.85442980     0.15300
H910        H  0.70795100  0.07899149  0.85215437     0.15300
H911        H  0.77479560  0.81881607  0.72705660     0.13500
H912        H  0.78816431  0.82256989  0.78072278     0.13500
H913        H  0.78846178  0.22236834  0.72387603     0.13500
H914        H  0.78634309  0.22525642  0.77762988     0.13500
H915        H  0.76953320  0.02006165  0.72830575     0.26800
H916        H  0.77433586  0.02339413  0.77709244     0.26800
C917        C  0.19786418  0.80452013  0.88198847     0.30600
C918        C  0.26963169  0.75466558  0.84836393     0.30600
C919        C  0.17518062  0.74971173  0.86953721    -0.05600
C920        C  0.21201062  0.83634608  0.85485405    -0.06300
C921        C  0.25656106  0.79060663  0.89470630    -0.06200
C922        C  0.21238393  0.72264207  0.85280357    -0.05600
C923        C  0.24772809  0.80930969  0.83773090    -0.06300
C924        C  0.29178167  0.76482215  0.87792867    -0.06200
C925        C  0.18415416  0.67428359  0.84440710    -0.31600
N926        N  0.13140751  0.67169464  0.85528988     0.14900
C927        C  0.12512395  0.71949252  0.86903359    -0.31600
H928        H  0.08610796  0.73213050  0.87751971     0.16800
C929        C  0.24901480  0.83694779  0.81306170    -0.30600
N930        N  0.21956293  0.88362056  0.81479603     0.13600
C931        C  0.19484778  0.88238502  0.83997476    -0.30600
C932        C  0.33961942  0.75134301  0.89360996    -0.30900
N933        N  0.33537471  0.77015456  0.91985554     0.14100
H934        H  0.37503288  0.72892388  0.88628656     0.16700
C935        C  0.28443122  0.79464137  0.92049482    -0.30900
H936        H  0.26884610  0.81421439  0.93853803     0.16800
H937        H  0.16556083  0.91238403  0.84682569     0.16800
H938        H  0.20061004  0.64331443  0.83116297     0.16800
H939        H  0.26979181  0.82333815  0.79488424     0.16800
N940        N  0.07774225  0.52444003  0.85611231    -0.36000
N941        N  0.99269010  0.43822110  0.86803182    -0.56500
N942        N  0.90178233  0.52003026  0.86672890    -0.36000
N943        N  0.98715112  0.60664810  0.86029690    -0.56500
C944        C  0.11120608  0.48185177  0.86300566     0.27600
C945        C  0.10845495  0.57159415  0.86002818     0.27600
C946        C  0.87305631  0.47529601  0.87570172     0.27600
C947        C  0.86985122  0.56464563  0.87132242     0.27600
C948        C  0.03719711  0.40802400  0.86012679     0.36200
C949        C  0.94569482  0.40519698  0.86636097     0.36200
C950        C  0.03109942  0.63784367  0.85143713     0.36200
C951        C  0.93927780  0.63571898  0.85640722     0.36200
C952        C  0.16359993  0.50250120  0.87156001    -0.21300
C953        C  0.16190105  0.55848028  0.86973738    -0.21300
C954        C  0.82221720  0.49194421  0.88605964    -0.21300
C955        C  0.82024223  0.54779095  0.88333916    -0.21300
C956        C  0.01760963  0.35633116  0.85282910    -0.22300
C957        C  0.96042809  0.35443287  0.85707841    -0.22300
C958        C  0.01054049  0.68620449  0.84142063    -0.22300
C959        C  0.95298232  0.68503025  0.84474377    -0.22300
C960        C  0.09572532  0.42496722  0.86141652    -0.17700
C961        C  0.08994917  0.62596243  0.85464697    -0.17700
C962        C  0.88351557  0.61991557  0.86431290    -0.17700
C963        C  0.88947445  0.41949930  0.87321795    -0.17700
H964        H  0.19911697  0.47988409  0.87918867     0.15300
H965        H  0.19611437  0.58621720  0.87561178     0.15300
H966        H  0.78963322  0.46644455  0.89469019     0.15300
H967        H  0.78602908  0.57307643  0.88958175     0.15300
H968        H  0.04172449  0.32319214  0.84491112     0.13500
H969        H  0.93263782  0.31987135  0.85301726     0.13500
H970        H  0.03458720  0.71930192  0.83272377     0.13500
H971        H  0.92441085  0.71688460  0.83906026     0.13500
H972        H  0.03736771  0.52126942  0.84729046     0.26800
H973        H  0.93882932  0.51936719  0.85583058     0.26800
C974        C  0.70441769  0.30340688  0.85759788     0.30600
C975        C  0.76857680  0.24220677  0.89122254     0.30600
C976        C  0.76348477  0.32945357  0.86656314    -0.05600
C977        C  0.67726349  0.28988382  0.88570522    -0.06300
C978        C  0.72293077  0.24797399  0.84527633    -0.06200
C979        C  0.79577383  0.29913540  0.88485927    -0.05600
C980        C  0.71054162  0.25939753  0.90281809    -0.06300
C981        C  0.75438515  0.21735141  0.86259548    -0.06200
C982        C  0.84530594  0.33022328  0.89070061    -0.31600
N983        N  0.84565502  0.37631132  0.87520526     0.14900
C984        C  0.79700632  0.37461410  0.86000854    -0.31600
H985        H  0.78925737  0.40329647  0.84410597     0.16800
C986        C  0.68193435  0.25360638  0.92746842    -0.30600
N987        N  0.63081576  0.27808533  0.92599817     0.13600
C988        C  0.62814968  0.30098186  0.90037076    -0.30600
C989        C  0.76797930  0.16982305  0.84851615    -0.30900
N990        N  0.74472043  0.16955385  0.82269065     0.14100
H991        H  0.79390453  0.13785396  0.85661469     0.16700
C992        C  0.71758681  0.21793999  0.82053278    -0.30900
H993        H  0.69489586  0.23023516  0.80225565     0.16800
H994        H  0.59327512  0.32466844  0.89285914     0.16800
H995        H  0.87890169  0.31962573  0.90484289     0.16800
H996        H  0.69730417  0.23192145  0.94520507     0.16800
N997        N  0.48223038  0.75601559  0.95006097    -0.36000
N998        N  0.57097059  0.76128718  0.99279832    -0.56500
N999        N  0.48952167  0.76554684  0.53726303    -0.36000
N1000       N  0.39437615  0.76351963  0.99322707    -0.56500
C1001       C  0.52903250  0.76685510  0.93511839     0.27600
C1002       C  0.43655264  0.77399860  0.93558408     0.27600
C1003       C  0.53713341  0.78145783  0.55159889     0.27600
C1004       C  0.44454717  0.78003414  0.55235997     0.27600
C1005       C  0.60247098  0.74761401  0.97080402     0.36200
C1006       C  0.60956807  0.75448383  0.51782134     0.36200
C1007       C  0.36145867  0.75606724  0.97003354     0.36200
C1008       C  0.36738154  0.76153465  0.51743376     0.36200
C1009       C  0.51292255  0.79274302  0.91127527    -0.21300
C1010       C  0.45514895  0.79767725  0.91165892    -0.21300
C1011       C  0.52183518  0.80767541  0.57547585    -0.21300
C1012       C  0.46383818  0.80629854  0.57606739    -0.18100
C1013       C  0.65468481  0.73049033  0.98028986    -0.22300
C1014       C  0.66100614  0.73384936  0.51057924    -0.22300
C1015       C  0.30808671  0.73873472  0.97759513    -0.22300
C1016       C  0.31240624  0.74920937  0.50876951    -0.22300
C1017       C  0.58598873  0.75408335  0.94235939    -0.17700
C1018       C  0.37827225  0.76657681  0.94227677    -0.17700
C1019       C  0.38639466  0.76938473  0.54582322    -0.17700
C1020       C  0.59398554  0.76874236  0.54533535    -0.17700
H1021       H  0.54006180  0.80806769  0.89553009     0.15300
H1022       H  0.42989735  0.81724959  0.89605098     0.15300
H1023       H  0.54962588  0.82574360  0.59110397     0.15300
H1024       H  0.43874323  0.82344846  0.59205620     0.15300
H1025       H  0.68879573  0.71583603  0.96819332     0.13500
H1026       H  0.69598486  0.72433203  0.52421327     0.13500
H1027       H  0.27246035  0.72830855  0.96417303     0.13500
H1028       H  0.27659176  0.74125254  0.52150675     0.13500
H1029       H  0.48097728  0.73320006  0.96788467     0.26800
H1030       H  0.48783292  0.74110755  0.51974268     0.26800
N1031       N  0.57296854  0.27176346  0.99847134    -0.36000
N1032       N  0.48387096  0.27681555  0.95635455    -0.56500
N1033       N  0.39457006  0.27306793  0.00081392    -0.36000
N1034       N  0.48707229  0.28331026  0.54262412    -0.56500
C1035       C  0.60423106  0.28474279  0.97610667     0.27600
C1036       C  0.60789185  0.28076117  0.52147877     0.27600
C1037       C  0.36286696  0.28092642  0.97720200     0.27600
C1038       C  0.36401406  0.28790809  0.52220295     0.27600
C1039       C  0.52922687  0.26687460  0.94032585     0.36200
C1040       C  0.43653059  0.26133111  0.94160310     0.36200
C1041       C  0.53427211  0.27050825  0.55796888     0.36200
C1042       C  0.44088258  0.27668639  0.55890013     0.36200
C1043       C  0.65675233  0.30389885  0.98534816    -0.21300
C1044       C  0.66076425  0.29718807  0.51280813    -0.21300
C1045       C  0.31122469  0.30040014  0.98506807    -0.21300
C1046       C  0.31088099  0.30282177  0.51256077    -0.21300
C1047       C  0.51050566  0.24450772  0.91560194    -0.22300
C1048       C  0.45255739  0.24045196  0.91650146    -0.22300
C1049       C  0.51714234  0.25480767  0.58364479    -0.22300
C1050       C  0.45931951  0.25914412  0.58437149    -0.22300
C1051       C  0.58747701  0.27752537  0.94763771    -0.17700
C1052       C  0.59302255  0.27403702  0.54996737    -0.17700
C1053       C  0.38198298  0.28493869  0.55144607    -0.17700
C1054       C  0.37881399  0.27038972  0.94881638    -0.17700
H1055       H  0.69112410  0.31841019  0.97304905     0.15300
H1056       H  0.69698943  0.30889456  0.52557167     0.15300
H1057       H  0.27681253  0.31193042  0.97157014     0.15300
H1058       H  0.27630542  0.31633218  0.52472502     0.15300
H1059       H  0.53591390  0.23104702  0.89885870     0.13500
H1060       H  0.42528121  0.22375951  0.90030366     0.13500
H1061       H  0.54344878  0.23967362  0.60003936     0.13500
H1062       H  0.43377872  0.24788037  0.60151841     0.13500
H1063       H  0.53355541  0.25238221  0.99824531     0.26800
H1064       H  0.43397067  0.25537428  0.00126295     0.26800
C1065       C  0.77108167  0.79095132  0.89139538     0.30600
C1066       C  0.70524405  0.74218015  0.85189675     0.30600
C1067       C  0.79585662  0.73875436  0.87879736    -0.05600
C1068       C  0.71066489  0.77387416  0.89977922    -0.06300
C1069       C  0.76038767  0.82695091  0.86518422    -0.06200
C1070       C  0.76113528  0.71187692  0.85980059    -0.05600
C1071       C  0.67656249  0.74739323  0.88046104    -0.06300
C1072       C  0.72640630  0.80065776  0.84573433    -0.06200
C1073       C  0.78861488  0.66343785  0.85324963    -0.31600
N1074       N  0.84033537  0.66213482  0.86633256     0.14900
C1075       C  0.84525848  0.70906633  0.88137541    -0.31600
H1076       H  0.88234136  0.72095086  0.89347331     0.16800
C1077       C  0.62630524  0.73462735  0.89438618    -0.30600
N1078       N  0.62924186  0.75461563  0.92091336     0.13600
C1079       C  0.68090086  0.77884886  0.92379753    -0.30600
C1080       C  0.72028726  0.83412963  0.82319027    -0.30900
N1081       N  0.75079968  0.88090473  0.82678257     0.14100
H1082       H  0.69517125  0.82443334  0.80493723     0.16700
C1083       C  0.77536283  0.87725140  0.85277732    -0.30900
H1084       H  0.80335837  0.90798752  0.86188568     0.16800
H1085       H  0.69605648  0.79935412  0.94227775     0.16800
H1086       H  0.77239882  0.63185651  0.83947462     0.16800
H1087       H  0.59040477  0.71211822  0.88581181     0.16800
C1088       C  0.77831135  0.23656132  0.61030003     0.30600
C1089       C  0.71089973  0.29251661  0.64231664     0.30600
C1090       C  0.80169020  0.29522190  0.61859559    -0.05600
C1091       C  0.71943315  0.25070664  0.59658364    -0.06300
C1092       C  0.76491362  0.20868715  0.63803698    -0.06200
C1093       C  0.76635635  0.32440551  0.63532056    -0.05600
C1094       C  0.68614738  0.28016070  0.61299315    -0.06300
C1095       C  0.73113106  0.23809874  0.65414590    -0.06200
C1096       C  0.78999411  0.37708324  0.63800584    -0.31600
N1097       N  0.83950008  0.38102767  0.62426202     0.14900
C1098       C  0.84513692  0.33173758  0.61146821    -0.31600
H1099       H  0.87775636  0.32387079  0.59710583     0.16800
C1100       C  0.63806132  0.29429774  0.59746819    -0.30600
N1101       N  0.63873643  0.27179171  0.57173967     0.13600
C1102       C  0.68962247  0.24599237  0.57103464    -0.30600
C1103       C  0.72247569  0.20903541  0.67826721    -0.30900
N1104       N  0.75062216  0.16134844  0.67780292     0.14100
H1105       H  0.69663647  0.22196568  0.69497313     0.16700
C1106       C  0.77672522  0.16085001  0.65285142    -0.30900
H1107       H  0.80289469  0.12836251  0.64585742     0.16800
H1108       H  0.70453566  0.22568895  0.55303870     0.16800
H1109       H  0.77203538  0.41042084  0.64894757     0.16800
H1110       H  0.60489795  0.31984760  0.60468426     0.16800
C1111       C  0.27822140  0.30740108  0.85343209     0.30600
C1112       C  0.20170991  0.24690630  0.88092462     0.30600
C1113       C  0.22028342  0.33481268  0.85777896    -0.05600
C1114       C  0.26012367  0.25107299  0.83916640    -0.06300
C1115       C  0.29718344  0.28945995  0.88321930    -0.06200
C1116       C  0.18240217  0.30370977  0.87216306    -0.05600
C1117       C  0.22242085  0.22035074  0.85400700    -0.06300
C1118       C  0.25876590  0.25841984  0.89724923    -0.06200
C1119       C  0.13450999  0.33413363  0.87572649    -0.31600
N1120       N  0.13965639  0.38290155  0.86284851     0.14900
C1121       C  0.19231230  0.38320313  0.85158425    -0.31600
H1122       H  0.20883662  0.41568715  0.83922790     0.16800
C1123       C  0.21363197  0.17081302  0.84008222    -0.30600
N1124       N  0.24055329  0.17066299  0.81606489     0.13600
C1125       C  0.26891396  0.21920283  0.81522853    -0.30600
C1126       C  0.28471401  0.24693067  0.92302010    -0.30900
N1127       N  0.33647135  0.27227612  0.92569323     0.14100
H1128       H  0.26812408  0.22049631  0.93845394     0.16700
C1129       C  0.34424574  0.29723111  0.90112881    -0.30900
H1130       H  0.38241941  0.31955796  0.89667438     0.16800
H1131       H  0.29236912  0.22909329  0.79752545     0.16800
H1132       H  0.09847423  0.32130077  0.88737423     0.16800
H1133       H  0.18987508  0.13624709  0.84668341     0.16800
C1134       C  0.26763675  0.75020617  0.63688799     0.30600
C1135       C  0.21168349  0.81644335  0.60198746     0.30600
C1136       C  0.20881071  0.72909940  0.62648820    -0.05600
C1137       C  0.25586122  0.80859907  0.64821887    -0.06300
C1138       C  0.29935363  0.76230448  0.60937596    -0.06200
C1139       C  0.17829736  0.76194884  0.60879780    -0.05600
C1140       C  0.22376487  0.83962271  0.63125610    -0.06300
C1141       C  0.26911394  0.79558823  0.59213950    -0.06200
C1142       C  0.12648520  0.73265583  0.60439459    -0.31600
N1143       N  0.12698348  0.68352154  0.61765718     0.14900
C1144       C  0.17718819  0.68238350  0.63151202    -0.31600
H1145       H  0.19010945  0.64960634  0.64467633     0.16800
C1146       C  0.20881724  0.88580969  0.64605223    -0.30600
N1147       N  0.23454817  0.88628728  0.67130040     0.13600
C1148       C  0.26395079  0.83916631  0.67265075    -0.30600
C1149       C  0.29776685  0.80127366  0.56768575    -0.30900
N1150       N  0.34550376  0.77226594  0.56837421     0.14100
H1151       H  0.28454233  0.82533896  0.55038466     0.16700
C1152       C  0.34796205  0.74974962  0.59420879    -0.30900
H1153       H  0.38254446  0.72563097  0.60141676     0.16800
H1154       H  0.28848141  0.82713041  0.69046695     0.16800
H1155       H  0.09017031  0.74621135  0.59305255     0.16800
H1156       H  0.18142595  0.91728503  0.63862106     0.16800
O1157       O  0.09434000  0.18194967  0.48836956    -0.74700
O1158       O  0.16361961  0.12634410  0.49764752    -0.53600
C1159       C  0.13773508  0.17036227  0.50247690     0.79100
O1160       O  0.95693088  0.96056245  0.56140189    -0.59300
O1161       O  0.87667645  0.98103696  0.53829936    -0.52300
C1162       C  0.90375238  0.95733538  0.55756925     0.71100
O1163       O  0.13474127  0.02378725  0.54720399    -0.73800
O1164       O  0.18239747  0.00731397  0.50931818    -0.54400
C1165       C  0.17198912  0.99791659  0.53413642     0.77100
O1166       O  0.90434423  0.16946680  0.50482975    -0.59000
O1167       O  0.85825615  0.09343110  0.51816168    -0.52100
C1168       C  0.86642275  0.14437700  0.51830972     0.73700
Zr1169     Zr  0.00265505  0.14678635  0.49981897     2.54700
O1170       O  0.01877705  0.20553859  0.53961937    -0.79500
O1171       O  0.98403627  0.23035573  0.47521097    -0.92900
Zr1172     Zr  0.03247184  0.01192365  0.54266078     2.64700
O1173       O  0.01656589  0.05474759  0.58676261    -0.97900
O1174       O  0.07584277  0.94427932  0.57180906    -0.80000
O1175       O  0.06985471  0.08559023  0.51823313    -0.83300
O1176       O  0.96555288  0.07586833  0.52782772    -2.18000
O1177       O  0.90640422  0.04631034  0.94930446    -0.66700
O1178       O  0.82709291  0.04394728  0.96818004    -0.51300
C1179       C  0.85507156  0.05935449  0.94806417     0.72100
O1180       O  0.11634518  0.90346362  0.99013332    -0.59600
O1181       O  0.17135070  0.97231816  0.97607894    -0.51600
C1182       C  0.15764473  0.92209419  0.97659515     0.73900
O1183       O  0.92832925  0.87940187  0.98669688    -0.71000
O1184       O  0.86208762  0.94366714  0.98407253    -0.49700
C1185       C  0.87791644  0.89512099  0.98160345     0.75300
O1186       O  0.10034640  0.02829559  0.92959520    -0.66300
O1187       O  0.17605810  0.05684260  0.95196484    -0.53500
C1188       C  0.14325293  0.06078450  0.93121642     0.73600
Zr1189     Zr  0.00218029  0.05415109  0.93501052     2.77500
O1190       O  0.96571368  0.01552825  0.89180914    -0.97100
O1191       O  0.00930248  0.13193303  0.90483729    -0.77900
Zr1192     Zr  0.01864689  0.92718918  0.98260686     2.70100
O1193       O  0.02092208  0.89755533  0.93490404    -0.79200
O1194       O  0.03429030  0.83092890  0.99059613    -0.98200
Zr1195     Zr  0.12025807  0.04825619  0.99157981     2.21500
Zr1196     Zr  0.90737677  0.02591999  0.99678691     2.11100
O1197       O  0.95497312  0.98298559  0.95890345    -2.46900
O1198       O  0.06610861  0.99546349  0.95778724    -0.78900
O1199       O  0.95057034  0.09670857  0.96999741    -0.71100
O1200       O  0.06987742  0.98001904  0.01568736    -2.32100
O1201       O  0.05576535  0.10729812  0.96698271    -2.28300
O1202       O  0.97373427  0.97334836  0.01621875    -0.72900
H1203       H  0.94716026  0.09002543  0.54370684     0.79100
H1204       H  0.09493885  0.95594397  0.02438222     0.80200
H1205       H  0.93260970  0.95921486  0.94671985     0.82400
H1206       H  0.07269246  0.13319935  0.95511358     0.80000
H1207       H  0.06998698  0.90985687  0.56148663     0.43100
H1208       H  0.00233926  0.81691317  0.00128318     0.42000
H1209       H  0.06112835  0.89070508  0.93155706     0.41700
H1210       H  0.95200157  0.97866367  0.89650763     0.39600
H1211       H  0.01627202  0.16364603  0.91713602     0.42800
H1212       H  0.96169540  0.25280934  0.48767282     0.37500
H1213       H  0.00979056  0.24244901  0.53333047     0.43700
H1214       H  0.97509186  0.05554920  0.58845802     0.40100
H1215       H  0.93097110  0.03588666  0.88782192     0.45000
H1216       H  0.95720252  0.21940010  0.46020618     0.43700
H1217       H  0.02889123  0.02780998  0.60044123     0.43900
H1218       H  0.02913494  0.81338097  0.97235578     0.44200
O1219       O  0.48483806  0.43506412  0.82348923    -0.74700
O1220       O  0.50004650  0.36592580  0.79420921    -0.53600
C1221       C  0.48190907  0.38478092  0.81675629     0.79100
O1222       O  0.32819321  0.57317896  0.72944078    -0.59300
O1223       O  0.38142907  0.64715121  0.74181046    -0.52300
C1224       C  0.34013405  0.62408211  0.72874437     0.71100
O1225       O  0.34966827  0.39977324  0.76350007    -0.73800
O1226       O  0.41723973  0.34306909  0.75360175    -0.54400
C1227       C  0.36729104  0.35929073  0.74969693     0.77100
O1228       O  0.47890957  0.60699622  0.81952426    -0.59000
O1229       O  0.46800848  0.66452216  0.78380557    -0.52100
C1230       C  0.46204112  0.65081802  0.80884793     0.73700
Zr1231     Zr  0.50384183  0.52024188  0.80226177     2.54700
O1232       O  0.49292807  0.51378865  0.85161741    -0.79500
O1233       O  0.60001970  0.53756990  0.81919653    -0.92900
Zr1234     Zr  0.36592368  0.49612008  0.75342095     2.64700
O1235       O  0.31222250  0.51943395  0.79356272    -0.97900
O1236       O  0.26944186  0.48060684  0.73656790    -0.80000
O1237       O  0.43904254  0.45819314  0.78019311    -0.83300
O1238       O  0.42707169  0.55859620  0.77692390    -2.18000
O1239       O  0.62492733  0.61031854  0.75433951    -0.66700
O1240       O  0.55577736  0.66987250  0.74423696    -0.51300
C1241       C  0.60445036  0.65823688  0.75416480     0.72100
O1242       O  0.51287582  0.42088818  0.67607078    -0.59600
O1243       O  0.48753534  0.35812979  0.70690134    -0.51600
C1244       C  0.51579795  0.37365609  0.68651377     0.73900
O1245       O  0.47222365  0.59105176  0.66800185    -0.71000
O1246       O  0.47271244  0.65796629  0.70040881    -0.49700
C1247       C  0.48300832  0.64001883  0.67635567     0.75300
O1248       O  0.64921114  0.43598261  0.74918209    -0.66300
O1249       O  0.58518328  0.36824480  0.74576445    -0.53500
C1250       C  0.62941967  0.39008501  0.75696209     0.73600
Zr1251     Zr  0.60128102  0.51962358  0.73737594     2.77500
O1252       O  0.62827392  0.52520776  0.68955740    -0.97100
O1253       O  0.70304182  0.53619837  0.73872146    -0.77900
Zr1254     Zr  0.46433982  0.50135662  0.68865636     2.70100
O1255       O  0.47958598  0.49729304  0.63955298    -0.79200
O1256       O  0.37155623  0.47590711  0.66930006    -0.98200
Zr1257     Zr  0.49362895  0.40703839  0.74965440     2.21500
Zr1258     Zr  0.47437457  0.61029021  0.74304963     2.11100
O1259       O  0.53010256  0.56189702  0.71159233    -2.46900
O1260       O  0.53658029  0.46040455  0.71542356    -0.78900
O1261       O  0.54859517  0.57088556  0.76875972    -0.71100
O1262       O  0.42019968  0.44667500  0.72187382    -2.32100
O1263       O  0.55750339  0.46878743  0.77291420    -2.28300
O1264       O  0.41143634  0.54889922  0.71972257    -0.72900
H1265       H  0.40177313  0.58016611  0.78732165     0.79100
H1266       H  0.39791079  0.42051082  0.71143522     0.80200
H1267       H  0.55131856  0.58547521  0.69992658     0.82400
H1268       H  0.58244852  0.45235670  0.78602540     0.80000
H1269       H  0.27167373  0.48134353  0.71635739     0.43100
H1270       H  0.34452657  0.49669882  0.68012556     0.42000
H1271       H  0.52093950  0.50154576  0.63777409     0.41700
H1272       H  0.65110076  0.55920250  0.68872115     0.39600
H1273       H  0.71884862  0.50894670  0.72623110     0.42800
H1274       H  0.60550757  0.51219252  0.83457016     0.37500
H1275       H  0.52157682  0.53916192  0.85989087     0.43700
H1276       H  0.28052129  0.54101481  0.78634492     0.40100
H1277       H  0.65555989  0.49603840  0.68678027     0.45000
H1278       H  0.59930209  0.57398085  0.82789613     0.43700
H1279       H  0.29446642  0.48470259  0.79916261     0.43900
H1280       H  0.37011203  0.49270974  0.65099119     0.44200
C1281       C  0.23171387  0.91092835  0.58705189    -0.05100
C1282       C  0.19784576  0.86251389  0.58245394     0.00800
C1283       C  0.17481773  0.85461819  0.55554179    -0.07800
C1284       C  0.17650240  0.89873221  0.53764590    -0.05200
C1285       C  0.19589173  0.95027338  0.54656605     0.00800
C1286       C  0.22899557  0.95557914  0.57010689    -0.07700
C1287       C  0.26341297  0.00727835  0.57589076     0.62700
H1288       H  0.26252526  0.91369461  0.60364389     0.13400
H1289       H  0.16018582  0.89332651  0.51709238     0.13400
C1290       C  0.14743206  0.80187816  0.54524693     0.62900
F1291       F  0.30432705  0.00018680  0.59611609    -0.22200
F1292       F  0.22829527  0.04811476  0.58403779    -0.19600
F1293       F  0.29036927  0.02320972  0.55236209    -0.19300
F1294       F  0.09380892  0.79778010  0.55531253    -0.19300
F1295       F  0.17871624  0.75754843  0.55256655    -0.19600
F1296       F  0.14223267  0.80030766  0.51710236    -0.22300
C1297       C  0.26028908  0.72004124  0.68510613    -0.05100
C1298       C  0.28707326  0.71261716  0.65961599     0.00800
C1299       C  0.31846132  0.66468922  0.65640206    -0.07800
C1300       C  0.33570532  0.63804956  0.68017226    -0.05200
C1301       C  0.31628928  0.65284422  0.70600874     0.00800
C1302       C  0.27603235  0.69269377  0.70868392    -0.07700
C1303       C  0.24864448  0.70807212  0.73537625     0.62700
H1304       H  0.22550461  0.74738146  0.68683243     0.13400
H1305       H  0.36291349  0.60350443  0.67842034     0.13400
C1306       C  0.32857464  0.63486171  0.62968775     0.62900
F1307       F  0.19058927  0.70406797  0.73205049    -0.22200
F1308       F  0.26371300  0.76109104  0.74203008    -0.19600
F1309       F  0.26424240  0.67565553  0.75709396    -0.19300
F1310       F  0.38486538  0.63978233  0.62328808    -0.19300
F1311       F  0.29513637  0.65231899  0.60821421    -0.19600
F1312       F  0.31564409  0.58025114  0.63274112    -0.22300
C1313       C  0.41607338  0.38051466  0.85387474    -0.05100
C1314       C  0.44187511  0.35156884  0.83259021     0.00800
C1315       C  0.40829176  0.31362893  0.81739260    -0.07800
C1316       C  0.35009156  0.31995981  0.81753883    -0.05200
C1317       C  0.32458225  0.34192932  0.84038848     0.00800
C1318       C  0.35707128  0.38001115  0.85642783    -0.07700
C1319       C  0.32994649  0.42327760  0.87393573     0.62700
H1320       H  0.44152504  0.40958199  0.86579437     0.13400
H1321       H  0.32458362  0.30444219  0.80089227     0.13400
C1322       C  0.43185983  0.26191497  0.80519934     0.62900
F1323       F  0.37000088  0.45550666  0.88779514    -0.22200
F1324       F  0.29487532  0.40114375  0.89318605    -0.19600
F1325       F  0.29890996  0.45656599  0.85703732    -0.19300
F1326       F  0.47229657  0.27166714  0.78602466    -0.19300
F1327       F  0.39019980  0.23018377  0.79245507    -0.19600
F1328       F  0.45492511  0.23178830  0.82620350    -0.22300
C1329       C  0.16162414  0.15824535  0.93334443    -0.05100
C1330       C  0.14447620  0.11307982  0.91723327     0.00800
C1331       C  0.12460346  0.12106393  0.89015126    -0.07800
C1332       C  0.12494836  0.17465780  0.88035305    -0.05200
C1333       C  0.15535203  0.21555580  0.89502637     0.00800
C1334       C  0.16050856  0.21019551  0.92311101    -0.07700
C1335       C  0.15800453  0.25818281  0.94234568     0.62700
H1336       H  0.17326070  0.15333421  0.95449503     0.13400
H1337       H  0.11163492  0.18264758  0.85944960     0.13400
C1338       C  0.11026556  0.07364130  0.87099616     0.62900
F1339       F  0.18866635  0.24776024  0.96596777    -0.22200
F1340       F  0.10225947  0.26580211  0.94846583    -0.19600
F1341       F  0.17891214  0.30564011  0.93133575    -0.19300
F1342       F  0.09613222  0.09053921  0.84481940    -0.19300
F1343       F  0.06535111  0.04392843  0.88040453    -0.19600
F1344       F  0.15628148  0.04032991  0.86952295    -0.22300
C1345       C  0.87690304  0.20359355  0.55709725    -0.05100
C1346       C  0.83951384  0.17219574  0.54029276     0.00800
C1347       C  0.78976993  0.14923048  0.55137289    -0.07800
C1348       C  0.77929307  0.15984061  0.57864246    -0.05200
C1349       C  0.81097860  0.20014736  0.59270603     0.00800
C1350       C  0.86521826  0.21348380  0.58433209    -0.07700
C1351       C  0.91425088  0.21910433  0.60478749     0.62700
H1352       H  0.91873038  0.21353455  0.55030489     0.13400
H1353       H  0.74055756  0.14431360  0.58731276     0.13400
C1354       C  0.74795581  0.11252361  0.53547259     0.62900
F1355       F  0.94254171  0.17066781  0.60540349    -0.22200
F1356       F  0.89657249  0.22983658  0.63101913    -0.19600
F1357       F  0.95166132  0.25960682  0.59706313    -0.19300
F1358       F  0.75745521  0.05906498  0.54218928    -0.19300
F1359       F  0.75237077  0.11881052  0.50749988    -0.19600
F1360       F  0.69321130  0.12456483  0.54211254    -0.22300
C1361       C  0.61592761  0.27717758  0.65808079    -0.05100
C1362       C  0.66529213  0.31030249  0.66001101     0.00800
C1363       C  0.66874335  0.35188567  0.67957769    -0.07800
C1364       C  0.61759605  0.37281794  0.68724867    -0.05200
C1365       C  0.56613363  0.34546537  0.68044970     0.00800
C1366       C  0.56556640  0.29430254  0.66793934    -0.07700
C1367       C  0.51447313  0.25676537  0.66590756     0.62700
H1368       H  0.61674931  0.23847587  0.64739264     0.13400
H1369       H  0.61806316  0.40944295  0.69947192     0.13400
C1370       C  0.72163446  0.36740465  0.69632864     0.62900
F1371       F  0.52055621  0.21594893  0.64666117    -0.22200
F1372       F  0.46672174  0.28489946  0.65880928    -0.19600
F1373       F  0.50850289  0.23222262  0.69086644    -0.19300
F1374       F  0.73389912  0.42212182  0.69383750    -0.19300
F1375       F  0.76802677  0.33781282  0.68960724    -0.19600
F1376       F  0.71247745  0.35646835  0.72346482    -0.22300
C1377       C  0.71000657  0.70475817  0.80481747    -0.05100
C1378       C  0.67424865  0.72271364  0.82579349     0.00800
C1379       C  0.61930090  0.74014266  0.81714915    -0.07800
C1380       C  0.59887986  0.72393569  0.79108983    -0.05200
C1381       C  0.63293806  0.69762249  0.77238494     0.00800
C1382       C  0.69070965  0.69355858  0.77823864    -0.07700
C1383       C  0.73317875  0.67739238  0.75710764     0.62700
H1384       H  0.75504737  0.70324194  0.80819569     0.13400
H1385       H  0.55498364  0.73032435  0.78566758     0.13400
C1386       C  0.58096551  0.77774479  0.83275543     0.62900
F1387       F  0.77541714  0.71684860  0.75616217    -0.22200
F1388       F  0.70910189  0.67197473  0.73109331    -0.19600
F1389       F  0.75702646  0.62883893  0.76451510    -0.19300
F1390       F  0.55394916  0.81206174  0.81462137    -0.19300
F1391       F  0.60923620  0.81104993  0.85149878    -0.19600
F1392       F  0.54023559  0.74724029  0.84568772    -0.22300
C1393       C  0.78184521  0.86428041  0.92592476    -0.05100
C1394       C  0.80078941  0.81342544  0.91699497     0.00800
C1395       C  0.82703678  0.78018507  0.93770816    -0.07800
C1396       C  0.85556872  0.80724180  0.95929703    -0.05200
C1397       C  0.83797113  0.85841762  0.96719912     0.00800
C1398       C  0.79118727  0.88047232  0.95319751    -0.07700
C1399       C  0.74413154  0.90667092  0.96895714     0.62700
H1400       H  0.75098203  0.88537691  0.91351128     0.13400
H1401       H  0.88609045  0.78621978  0.97197938     0.13400
C1402       C  0.81564984  0.72001898  0.94318109     0.62900
F1403       F  0.69589884  0.91160836  0.95270860    -0.22200
F1404       F  0.75924891  0.95752703  0.97887872    -0.19600
F1405       F  0.73072736  0.87403156  0.99086946    -0.19300
F1406       F  0.86420853  0.69098876  0.93985511    -0.19300
F1407       F  0.77253214  0.69691660  0.92732887    -0.19600
F1408       F  0.79974271  0.71419153  0.97013118    -0.22300
C1409       C  0.75858213  0.15656907  0.91582284    -0.05100
C1410       C  0.79686179  0.19753757  0.90701606     0.00800
C1411       C  0.85436577  0.18277538  0.90452983    -0.07800
C1412       C  0.87213246  0.13708896  0.91875229    -0.05200
C1413       C  0.83370466  0.09971461  0.92942226     0.00800
C1414       C  0.77580063  0.10711032  0.92573766    -0.07700
C1415       C  0.73155225  0.06351325  0.93154995     0.62700
H1416       H  0.71373334  0.16053403  0.91251783     0.13400
H1417       H  0.91638766  0.12921760  0.92060555     0.13400
C1418       C  0.89696184  0.20672362  0.88489117     0.62900
F1419       F  0.75297674  0.01225726  0.92806753    -0.22200
F1420       F  0.68557815  0.06744817  0.91369649    -0.19600
F1421       F  0.71326740  0.06948469  0.95803285    -0.19300
F1422       F  0.93607738  0.23898177  0.89924981    -0.19300
F1423       F  0.87295628  0.23566688  0.86388482    -0.19600
F1424       F  0.92516821  0.16518358  0.87226324    -0.22300
C1425       C  0.62094281  0.32229460  0.79349487    -0.05100
C1426       C  0.64885201  0.36922710  0.78389642     0.00800
C1427       C  0.68159462  0.40197868  0.80296757    -0.07800
C1428       C  0.68362628  0.38598708  0.83032058    -0.05200
C1429       C  0.66682614  0.33389820  0.83778825     0.00800
C1430       C  0.62727207  0.30544096  0.82068358    -0.07700
C1431       C  0.58722246  0.26193455  0.83152652     0.62700
H1432       H  0.59183673  0.29996361  0.77995783     0.13400
H1433       H  0.70092397  0.41309826  0.84596382     0.13400
C1434       C  0.71557818  0.45266967  0.79524234     0.62900
F1435       F  0.54602740  0.28727091  0.84610580    -0.22200
F1436       F  0.61292749  0.22528919  0.84860780    -0.19600
F1437       F  0.56207630  0.23210789  0.81028564    -0.19300
F1438       F  0.68032427  0.49457809  0.78869975    -0.19300
F1439       F  0.74926867  0.44094231  0.77331858    -0.19600
F1440       F  0.75076606  0.47145290  0.81641330    -0.22300
C1441       C  0.15917016  0.83350022  0.95497664    -0.05100
C1442       C  0.18160626  0.88612920  0.95638615     0.00800
C1443       C  0.20442389  0.90876516  0.93290680    -0.07800
C1444       C  0.18700029  0.88720943  0.90773354    -0.05200
C1445       C  0.16819287  0.83251561  0.90520607     0.00800
C1446       C  0.15507236  0.80425175  0.93030375    -0.07700
C1447       C  0.13959898  0.74399221  0.93312572     0.62700
H1448       H  0.14374041  0.81584483  0.97363438     0.13400
H1449       H  0.20273193  0.90890181  0.89042760     0.13400
C1450       C  0.25403066  0.94869730  0.93355882     0.62900
F1451       F  0.13990573  0.72777627  0.96021898    -0.22200
F1452       F  0.17773885  0.71133608  0.92042401    -0.19600
F1453       F  0.08551203  0.73414742  0.92310477    -0.19300
F1454       F  0.27148779  0.96296879  0.95992588    -0.19300
F1455       F  0.24055676  0.99471455  0.91914119    -0.19600
F1456       F  0.29909258  0.92475990  0.92106548    -0.22300
C1457       C  0.32485333  0.67593212  0.83850584    -0.05100
C1458       C  0.31823561  0.73130094  0.83343995     0.00800
C1459       C  0.36766028  0.76296589  0.82608190    -0.07800
C1460       C  0.41460355  0.73486019  0.81775904    -0.05200
C1461       C  0.42065839  0.68045301  0.82391603     0.00800
C1462       C  0.37710946  0.65206085  0.83747718    -0.07700
C1463       C  0.38551465  0.59904427  0.85270767     0.62700
H1464       H  0.29118204  0.65295172  0.84755605     0.13400
H1465       H  0.44872455  0.75612413  0.80771332     0.13400
C1466       C  0.37789666  0.82445510  0.82929567     0.62900
F1467       F  0.34149401  0.58745012  0.86998297    -0.22200
F1468       F  0.43407632  0.60342017  0.86889493    -0.19600
F1469       F  0.38907995  0.55595086  0.83466627    -0.19300
F1470       F  0.35087546  0.84642002  0.85131945    -0.19300
F1471       F  0.36250932  0.85073092  0.80553402    -0.19600
F1472       F  0.43476366  0.83621371  0.83400089    -0.22300
C1473       C  0.59568918  0.74328587  0.66407988    -0.05100
C1474       C  0.63783843  0.71076103  0.65231568     0.00800
C1475       C  0.61921736  0.65879775  0.64141982    -0.07800
C1476       C  0.56409799  0.64030296  0.64652021    -0.05200
C1477       C  0.52523009  0.67120511  0.66074356     0.00800
C1478       C  0.53984302  0.72522251  0.66750572    -0.07700
C1479       C  0.49722466  0.76534342  0.67766168     0.62700
H1480       H  0.60395911  0.78557535  0.66848663     0.13400
H1481       H  0.55248071  0.59895184  0.64095932     0.13400
C1482       C  0.65465762  0.62032207  0.62465101     0.62900
F1483       F  0.50195883  0.81314734  0.66320453    -0.22200
F1484       F  0.50767511  0.77635772  0.70515794    -0.19600
F1485       F  0.44227418  0.74601077  0.67400994    -0.19300
F1486       F  0.68865072  0.59125903  0.64213544    -0.19300
F1487       F  0.68642944  0.64695595  0.60552990    -0.19600
F1488       F  0.62118552  0.58299896  0.60995668    -0.22300
C1489       C  0.85706744  0.84464119  0.60401129    -0.05100
C1490       C  0.79848804  0.84930494  0.60109647     0.00800
C1491       C  0.77641935  0.89827503  0.59012946    -0.07800
C1492       C  0.81323679  0.93236051  0.57647046    -0.05200
C1493       C  0.87101928  0.92273933  0.57567247     0.00800
C1494       C  0.89428708  0.87958560  0.59096114    -0.07700
C1495       C  0.95719913  0.86880023  0.59337537     0.62700
H1496       H  0.87406722  0.81467206  0.61754469     0.13400
H1497       H  0.79632292  0.96787642  0.56654772     0.13400
C1498       C  0.71656097  0.91983524  0.59233327     0.62900
F1499       F  0.96882370  0.82408257  0.60930237    -0.22200
F1500       F  0.98509093  0.91296155  0.60554451    -0.19600
F1501       F  0.97804599  0.85880083  0.56766423    -0.19300
F1502       F  0.71989150  0.97281683  0.60199959    -0.19300
F1503       F  0.68178372  0.89193604  0.60967434    -0.19600
F1504       F  0.69097636  0.91995843  0.56659167    -0.22300
C1505       C  0.28479678  0.36408070  0.71840022    -0.05100
C1506       C  0.33639489  0.34137208  0.72441926     0.00800
C1507       C  0.36022025  0.30756755  0.70459164    -0.07800
C1508       C  0.34234536  0.31336841  0.67702147    -0.05200
C1509       C  0.28925800  0.33544335  0.67038048     0.00800
C1510       C  0.25640257  0.35357054  0.69346505    -0.07700
C1511       C  0.19192000  0.35422509  0.69645566     0.62700
H1512       H  0.26290668  0.38315440  0.73496582     0.13400
H1513       H  0.36270729  0.28986503  0.66145266     0.13400
C1514       C  0.38907584  0.25595975  0.71356155     0.62900
F1515       F  0.17759739  0.33523345  0.72206181    -0.22200
F1516       F  0.16157812  0.32126015  0.67833759    -0.19600
F1517       F  0.17354269  0.40692538  0.69469335    -0.19300
F1518       F  0.35789202  0.23145344  0.73377326    -0.19300
F1519       F  0.44258299  0.26652086  0.72401251    -0.19600
F1520       F  0.39237834  0.21916210  0.69210452    -0.22300
C1521       C  0.14615830  0.16299059  0.55213422    -0.05100
C1522       C  0.14663748  0.19720973  0.52917571     0.00800
C1523       C  0.14402530  0.25414307  0.53361487    -0.07800
C1524       C  0.15751268  0.27306421  0.55984479    -0.05200
C1525       C  0.16113016  0.23789102  0.58229497     0.00800
C1526       C  0.14286166  0.18430095  0.57852102    -0.07700
C1527       C  0.10158017  0.15741929  0.59740961     0.62700
H1528       H  0.14015579  0.12009428  0.54951240     0.13400
H1529       H  0.16959805  0.31538593  0.56247429     0.13400
C1530       C  0.12967994  0.29611140  0.51212868     0.62900
F1531       F  0.04956253  0.15421058  0.58421601    -0.22200
F1532       F  0.09444439  0.18707479  0.62119145    -0.19600
F1533       F  0.11825825  0.10539383  0.60341833    -0.19300
F1534       F  0.08037864  0.28190324  0.49812425    -0.19300
F1535       F  0.17527466  0.31391574  0.00241986    -0.19600
F1536       F  0.12109657  0.34654676  0.52387925    -0.22300
loop_ 
_geom_bond_atom_site_label_1 
_geom_bond_atom_site_label_2 
_geom_bond_distance 
_geom_bond_site_symmetry_2 
_ccdc_geom_bond_type 
C1            C3   1.543       .  S
C1            C5   1.561       .  S
C1            C4   1.563       .  S
C1          C757   1.478       .  S
C2            C6   1.565       .  S
C2            C8   1.618       .  S
C2            C7   1.565       .  S
C2          C741   1.527       .  S
C3           C11   1.396       .  A
C3            C6   1.361       .  A
C4           C15   1.421       .  A
C4            C7   1.370       .  A
C5           C19   1.402       .  A
C5            C8   1.389       .  A
C6            C9   1.415       .  A
C7           C13   1.397       .  A
C8           C16   1.441       .  A
C9           N10   1.376       .  A
C9           H22   1.082       .  S
N10          C11   1.359       .  A
N10          C44   1.483       .  S
C11          H12   1.083       .  S
C13          N14   1.355       .  A
C13          H23   1.076       .  S
N14          C15   1.372       .  A
N14         C104   1.485       .  S
C15          H21   1.069       .  S
C16          N17   1.401       .  A
C16          H18   1.082       .  S
N17          C19   1.363       .  A
N17         C285   1.518       .  S
C19          H20   1.082       .  S
N24          C29   1.363       .  A
N24          C28   1.366       .  A
N24          H56   1.040       .  S
N25          C32   1.370   1_655  A
N25          C33   1.368       .  A
N26          C31   1.369       .  A
N26          C30   1.369       .  A
N26          H57   1.040       .  S
N27          C34   1.368   1_655  A
N27          C35   1.369       .  A
C28          C36   1.385       .  A
C28          C44   1.434       .  A
C29          C45   1.438       .  A
C29          C37   1.389       .  A
C30          C38   1.386       .  A
C30          C47   1.442       .  A
C31          C46   1.443       .  A
C31          C39   1.386       .  A
C32          C44   1.443       .  A
C32          C40   1.385       .  A
C33          C47   1.442       .  A
C33          C41   1.385       .  A
C34          C42   1.384       .  A
C34          C45   1.439       .  A
C35          C43   1.388       .  A
C35          C46   1.446       .  A
C36          C37   1.384       .  A
C36          H48   1.082       .  S
C37          H49   1.082       .  S
C38          C39   1.387       .  A
C38          H50   1.082       .  S
C39          H51   1.080       .  S
C40          C41   1.378   1_455  A
C40          H52   1.082       .  S
C41          H53   1.081       .  S
C42          C43   1.380   1_455  A
C42          H54   1.082       .  S
C43          H55   1.081       .  S
C45         N375   1.475       .  S
C46          N67   1.488       .  S
C47         N329   1.484       .  S
C58          C60   1.576       .  S
C58          C62   1.530       .  S
C58          C61   1.540       .  S
C58         C722   1.499       .  S
C59          C63   1.583       .  S
C59          C65   1.557       .  S
C59          C64   1.585       .  S
C59         C706   1.532       .  S
C60          C68   1.401       .  A
C60          C63   1.400       .  A
C61          C72   1.392       .  A
C61          C64   1.373       .  A
C62          C76   1.401       .  A
C62          C65   1.361       .  A
C63          C66   1.411       .  A
C64          C70   1.423       .  A
C65          C73   1.395       .  A
C66          N67   1.376       .  A
C66          H79   1.080       .  S
N67          C68   1.365       .  A
C68          H69   1.080       .  S
C70          N71   1.380       .  A
C70          H80   1.082       .  S
N71          C72   1.363       .  A
N71         C135   1.490       .  S
C72          H78   1.083       .  S
C73          N74   1.364       .  A
C73          H75   1.082       .  S
N74          C76   1.364       .  A
N74         C252   1.471       .  S
C76          H77   1.082       .  S
N81          C86   1.371       .  A
N81          C85   1.369       .  A
N81         H113   1.040       .  S
N82          C89   1.366   1_545  A
N82          C90   1.367       .  A
N83          C88   1.369       .  A
N83          C87   1.368       .  A
N83         H114   1.041       .  S
N84          C91   1.369   1_545  A
N84          C92   1.369       .  A
C85          C93   1.384       .  A
C85         C101   1.443       .  A
C86         C102   1.446       .  A
C86          C94   1.386       .  A
C87          C95   1.388       .  A
C87         C104   1.445       .  A
C88         C103   1.438       .  A
C88          C96   1.384       .  A
C89         C101   1.442       .  A
C89          C97   1.387       .  A
C90         C104   1.440       .  A
C90          C98   1.385       .  A
C91          C99   1.387       .  A
C91         C102   1.444       .  A
C92         C100   1.385       .  A
C92         C103   1.443       .  A
C93          C94   1.384       .  A
C93         H105   1.080       .  S
C94         H106   1.082       .  S
C95          C96   1.381       .  A
C95         H107   1.081       .  S
C96         H108   1.082       .  S
C97          C98   1.384   1_565  A
C97         H109   1.081       .  S
C98         H110   1.081       .  S
C99         C100   1.382   1_565  A
C99         H111   1.081       .  S
C100        H112   1.081       .  S
C101        N379   1.484       .  S
C102        N162   1.487       .  S
C103        N356   1.488       .  S
N115        C120   1.372       .  A
N115        C119   1.369   1_545  A
N115        H147   1.040       .  S
N116        C123   1.373       .  A
N116        C124   1.372       .  A
N117        C122   1.371       .  A
N117        C121   1.374   1_545  A
N117        H148   1.040       .  S
N118        C125   1.374       .  A
N118        C126   1.373       .  A
C119        C127   1.389       .  A
C119        C135   1.449       .  A
C120        C136   1.440       .  A
C120        C128   1.383       .  A
C121        C129   1.384       .  A
C121        C138   1.446       .  A
C122        C137   1.455       .  A
C122        C130   1.391       .  A
C123        C135   1.446       .  A
C123        C131   1.384       .  A
C124        C138   1.456       .  A
C124        C132   1.390       .  A
C125        C133   1.386       .  A
C125        C136   1.453       .  A
C126        C134   1.386       .  A
C126        C137   1.451       .  A
C127        C128   1.382   1_565  A
C127        H139   1.080       .  S
C128        H140   1.082       .  S
C129        C130   1.385   1_565  A
C129        H141   1.082       .  S
C130        H142   1.081       .  S
C131        C132   1.383       .  A
C131        H143   1.082       .  S
C132        H144   1.081       .  S
C133        C134   1.381       .  A
C133        H145   1.082       .  S
C134        H146   1.081       .  S
C136        N336   1.495       .  S
C137        N222   1.493       .  S
C138        N313   1.497       .  S
C149        C151   1.567       .  S
C149        C153   1.564       .  S
C149        C152   1.580       .  S
C149        C677   1.513       .  S
C150        C154   1.582       .  S
C150        C156   1.545       .  S
C150        C155   1.549       .  S
C150        C690   1.493       .  S
C151        C159   1.394       .  A
C151        C154   1.397       .  A
C152        C163   1.414       .  A
C152        C155   1.375       .  A
C153        C167   1.416       .  A
C153        C156   1.344       .  A
C154        C157   1.412       .  A
C155        C161   1.398       .  A
C156        C164   1.408       .  A
C157        N158   1.377       .  A
C157        H170   1.082       .  S
N158        C159   1.366       .  A
N158        C193   1.491       .  S
C159        H160   1.071       .  S
C161        N162   1.365       .  A
C161        H171   1.081       .  S
N162        C163   1.374       .  A
C163        H169   1.082       .  S
C164        N165   1.370       .  A
C164        H166   1.081       .  S
N165        C167   1.360       .  A
N165        C250   1.490       .  S
C167        H168   1.071       .  S
N172        C177   1.371       .  A
N172        C176   1.369       .  A
N172        H204   1.041       .  S
N173        C180   1.369   1_655  A
N173        C181   1.371       .  A
N174        C179   1.370       .  A
N174        C178   1.371       .  A
N174        H205   1.038       .  S
N175        C182   1.369   1_655  A
N175        C183   1.369       .  A
C176        C184   1.386       .  A
C176        C192   1.444       .  A
C177        C193   1.445       .  A
C177        C185   1.387       .  A
C178        C186   1.388       .  A
C178        C195   1.451       .  A
C179        C194   1.448       .  A
C179        C187   1.387       .  A
C180        C192   1.448       .  A
C180        C188   1.389       .  A
C181        C195   1.440       .  A
C181        C189   1.382       .  A
C182        C190   1.386       .  A
C182        C193   1.445       .  A
C183        C191   1.385       .  A
C183        C194   1.442       .  A
C184        C185   1.383       .  A
C184        H196   1.080       .  S
C185        H197   1.081       .  S
C186        C187   1.386       .  A
C186        H198   1.082       .  S
C187        H199   1.082       .  S
C188        C189   1.379   1_455  A
C188        H200   1.081       .  S
C189        H201   1.081       .  S
C190        C191   1.379   1_455  A
C190        H202   1.082       .  S
C191        H203   1.082       .  S
C192        N352   1.488       .  S
C194        N306   1.484       .  S
C195        N215   1.489       .  S
C206        C208   1.578       .  S
C206        C210   1.577       .  S
C206        C209   1.572       .  S
C206        C661   1.510       .  S
C207        C211   1.580       .  S
C207        C213   1.546       .  S
C207        C212   1.557       .  S
C207        C642   1.496       .  S
C208        C216   1.402       .  A
C208        C211   1.393       .  A
C209        C220   1.415       .  A
C209        C212   1.370       .  A
C210        C224   1.422       .  A
C210        C213   1.355       .  A
C211        C214   1.417       .  A
C212        C218   1.403       .  A
C213        C221   1.403       .  A
C214        N215   1.377       .  A
C214        H227   1.080       .  S
N215        C216   1.359       .  A
C216        H217   1.072       .  S
C218        N219   1.364       .  A
C218        H228   1.082       .  S
N219        C220   1.383       .  A
N219        C283   1.495       .  S
C220        H226   1.082       .  S
C221        N222   1.364       .  A
C221        H223   1.082       .  S
N222        C224   1.375       .  A
C224        H225   1.080       .  S
N229        C234   1.366       .  A
N229        C233   1.368       .  A
N229        H261   1.042       .  S
N230        C237   1.370       .  A
N230       C1006   1.370       .  A
N231        C236   1.364       .  A
N231        C235   1.360       .  A
N231        H262   1.042       .  S
N232        C239   1.373       .  A
N232       C1008   1.374       .  A
C233        C241   1.383       .  A
C233        C249   1.432       .  A
C234        C250   1.435       .  A
C234        C242   1.387       .  A
C235        C243   1.389       .  A
C235        C252   1.429       .  A
C236        C251   1.425       .  A
C236        C244   1.384       .  A
C237        C249   1.452       .  A
C237        C245   1.388       .  A
C238        C252   1.438       .  A
C238        C246   1.385       .  A
C238        N998   1.366   1_554  A
C239        C247   1.388       .  A
C239        C250   1.457       .  A
C240        C248   1.386       .  A
C240        C251   1.449       .  A
C240       N1000   1.371   1_554  A
C241        C242   1.375       .  A
C241        H253   1.080       .  S
C242        H254   1.081       .  S
C243        C244   1.375       .  A
C243        H255   1.082       .  S
C244        H256   1.082       .  S
C245       C1014   1.388       .  A
C245        H257   1.081       .  S
C246       C1013   1.383   1_554  A
C246        H258   1.082       .  S
C247       C1016   1.388       .  A
C247        H259   1.081       .  S
C248       C1015   1.385   1_554  A
C248        H260   1.082       .  S
C249        N310   1.488       .  S
C251        N382   1.485       .  S
N263        C267   1.377       .  A
N263       C1036   1.374       .  A
N263        H295   1.040       .  S
N264        C271   1.370       .  A
N264        C272   1.367       .  A
N265        C269   1.385       .  A
N265       C1038   1.385       .  A
N265        H296   1.039       .  S
N266        C273   1.369       .  A
N266        C274   1.375       .  A
C267        C275   1.387       .  A
C267        C283   1.457       .  A
C268        C284   1.442       .  A
C268        C276   1.387       .  A
C268       N1031   1.365   1_554  A
C269        C277   1.386       .  A
C269        C286   1.476       .  A
C270        C285   1.477       .  A
C270        C278   1.389       .  A
C270       N1033   1.385       .  A
C271        C283   1.437       .  A
C271        C279   1.384       .  A
C272        C286   1.440       .  A
C272        C280   1.387       .  A
C273        C281   1.384       .  A
C273        C284   1.449       .  A
C274        C282   1.382       .  A
C274        C285   1.444       .  A
C275       C1044   1.387       .  A
C275        H287   1.081       .  S
C276       C1043   1.384   1_554  A
C276        H288   1.082       .  S
C277       C1046   1.398       .  A
C277        H289   1.081       .  S
C278       C1045   1.397   1_554  A
C278        H290   1.081       .  S
C279        C280   1.374       .  A
C279        H291   1.082       .  S
C280        H292   1.082       .  S
C281        C282   1.381       .  A
C281        H293   1.078       .  S
C282        H294   1.082       .  S
C284        N333   1.485       .  S
C286        N359   1.505       .  S
C297        C299   1.555       .  S
C297        C301   1.584       .  S
C297        C300   1.554       .  S
C297        C626   1.510       .  S
C298        C302   1.577       .  S
C298        C304   1.554       .  S
C298        C303   1.576       .  S
C298        C610   1.524       .  S
C299        C307   1.401       .  A
C299        C302   1.378       .  A
C300        C311   1.394       .  A
C300        C303   1.377       .  A
C301        C315   1.429       .  A
C301        C304   1.376       .  A
C302        C305   1.410       .  A
C303        C309   1.421       .  A
C304        C312   1.393       .  A
C305        N306   1.370       .  A
C305        H318   1.082       .  S
N306        C307   1.368       .  A
C307        H308   1.080       .  S
C309        N310   1.384       .  A
C309        H319   1.080       .  S
N310        C311   1.354       .  A
C311        H317   1.080       .  S
C312        N313   1.357       .  A
C312        H314   1.082       .  S
N313        C315   1.388       .  A
C315        H316   1.082       .  S
C320        C322   1.579       .  S
C320        C324   1.577       .  S
C320        C323   1.575       .  S
C320        C581   1.502       .  S
C321        C325   1.567       .  S
C321        C327   1.536       .  S
C321        C326   1.546       .  S
C321        C594   1.480       .  S
C322        C330   1.402       .  A
C322        C325   1.394       .  A
C323        C334   1.413       .  A
C323        C326   1.358       .  A
C324        C338   1.425       .  A
C324        C327   1.363       .  A
C325        C328   1.409       .  A
C326        C332   1.398       .  A
C327        C335   1.393       .  A
C328        N329   1.370       .  A
C328        H341   1.078       .  S
N329        C330   1.365       .  A
C330        H331   1.074       .  S
C332        N333   1.362       .  A
C332        H342   1.082       .  S
N333        C334   1.372       .  A
C334        H340   1.078       .  S
C335        N336   1.359       .  A
C335        H337   1.082       .  S
N336        C338   1.386       .  A
C338        H339   1.082       .  S
C343        C345   1.567       .  S
C343        C347   1.589       .  S
C343        C346   1.607       .  S
C343        C549   1.533       .  S
C344        C348   1.537       .  S
C344        C350   1.573       .  S
C344        C349   1.554       .  S
C344        C565   1.499       .  S
C345        C353   1.413       .  A
C345        C348   1.375       .  A
C346        C357   1.433       .  A
C346        C349   1.380       .  A
C347        C361   1.415       .  A
C347        C350   1.379       .  A
C348        C351   1.388       .  A
C349        C355   1.406       .  A
C350        C358   1.421       .  A
C351        N352   1.363       .  A
C351        H364   1.082       .  S
N352        C353   1.380       .  A
C353        H354   1.080       .  S
C355        N356   1.353       .  A
C355        H365   1.076       .  S
N356        C357   1.367       .  A
C357        H363   1.069       .  S
C358        N359   1.371       .  A
C358        H360   1.075       .  S
N359        C361   1.377       .  A
C361        H362   1.081       .  S
C366        C368   1.549       .  S
C366        C370   1.588       .  S
C366        C369   1.560       .  S
C366        C530   1.523       .  S
C367        C371   1.589       .  S
C367        C373   1.546       .  S
C367        C372   1.557       .  S
C367        C514   1.522       .  S
C368        C376   1.388       .  A
C368        C371   1.394       .  A
C369        C380   1.410       .  A
C369        C372   1.359       .  A
C370        C384   1.421       .  A
C370        C373   1.384       .  A
C371        C374   1.424       .  A
C372        C378   1.404       .  A
C373        C381   1.390       .  A
C374        N375   1.369       .  A
C374        H387   1.070       .  S
N375        C376   1.352       .  A
C376        H377   1.083       .  S
C378        N379   1.365       .  A
C378        H388   1.082       .  S
N379        C380   1.370       .  A
C380        H386   1.082       .  S
C381        N382   1.354       .  A
C381        H383   1.082       .  S
N382        C384   1.383       .  A
C384        H385   1.077       .  S
O389       Zr401   2.421   1_556  S
O389        C391   1.267   1_556  A
O390      Zr1195   2.409   1_554  S
O390        C391   1.278       .  A
C391        C754   1.443       .  S
O392       Zr404   2.376   1_665  S
O392        C394   1.273       .  A
O393      Zr1196   2.398   1_564  S
O393        C394   1.278       .  A
C394        C725   1.458       .  S
O395       Zr404   2.406       .  S
O395        C397   1.270       .  A
O396      Zr1195   2.421   1_554  S
O396        C397   1.280       .  A
C397        C517   1.455   1_545  S
O398       Zr401   2.441   1_656  S
O398        C400   1.283   1_556  A
O399      Zr1196   2.354   1_554  S
O399        C400   1.272       .  A
C400        C578   1.459       .  S
Zr401       O402   2.432       .  S
Zr401       O403   2.437   1_454  S
Zr401       O407   2.380       .  S
Zr401       O408   2.393   1_455  S
Zr401      O1199   2.347   1_454  S
Zr401      O1201   2.386   1_554  S
O402        H445   0.989       .  S
O403        H444   0.990       .  S
O403        H448   0.990       .  S
Zr404       O405   2.443   1_455  S
Zr404       O406   2.450   1_545  S
Zr404       O408   2.347   1_455  S
Zr404       O407   2.364       .  S
Zr404      O1200   2.370   1_545  S
Zr404      O1202   2.284   1_445  S
O405        H446   0.990       .  S
O405        H449   0.989       .  S
O406        H439   0.989       .  S
O407      Zr1195   2.409   1_554  S
O408      Zr1196   2.390   1_554  S
O408        H435   0.963       .  S
O409       Zr421   2.378       .  S
O409        C411   1.259       .  A
O410       Zr428   2.420       .  S
O410        C411   1.257       .  A
C411        C645   1.445       .  S
O412       Zr424   2.397       .  S
O412        C414   1.284       .  A
O413       Zr427   2.339   1_565  S
O413        C414   1.269       .  A
C414        C674   1.436       .  S
O415       Zr424   2.425   1_655  S
O415        C417   1.282       .  A
O416       Zr428   2.352   1_565  S
O416        C417   1.268       .  A
C417        C629   1.457       .  S
O418       Zr421   2.431   1_455  S
O418        C420   1.279       .  A
O419       Zr427   2.386       .  S
O419        C420   1.265       .  A
C420        C562   1.460       .  S
Zr421       O422   2.435       .  S
Zr421       O423   2.438       .  S
Zr421       O429   2.406   1_545  S
Zr421       O430   2.368   1_645  S
Zr421       O433   2.367   1_655  S
Zr421       O431   2.385       .  S
O422        H442   0.990   1_545  S
O422        H447   0.990       .  S
O423        H443   0.989   1_655  S
Zr424       O425   2.435   1_455  S
Zr424       O426   2.432       .  S
Zr424       O430   2.373       .  S
Zr424       O429   2.344   1_455  S
Zr424       O432   2.329       .  S
Zr424       O434   2.255   1_455  S
O425        H441   0.990   1_655  S
O426        H440   0.990       .  S
O426        H450   0.989       .  S
Zr427      O1158   2.439       .  S
Zr427      O1164   2.370       .  S
Zr427       O430   2.409   1_545  S
Zr427       O432   2.392   1_545  S
Zr427       O433   2.415       .  S
Zr427      O1175   2.396       .  S
Zr428      O1161   2.385   1_545  S
Zr428      O1167   2.321       .  S
Zr428       O429   2.445   1_545  S
Zr428       O431   2.415       .  S
Zr428      O1176   2.406       .  S
Zr428       O434   2.246   1_545  S
O429        H437   0.973       .  S
O431      Zr1169   2.335   1_655  S
O432      Zr1172   2.325   1_565  S
O432        H436   0.949       .  S
O433      Zr1169   2.387       .  S
O433        H438   0.954       .  S
O434      Zr1172   2.271   1_665  S
O451       Zr463   2.432       .  S
O451        C453   1.279       .  A
O452       Zr489   2.409       .  S
O452        C453   1.273       .  A
C453        C546   1.486       .  S
O454       Zr466   2.425       .  S
O454        C456   1.283       .  A
O455       Zr490   2.405       .  S
O455        C456   1.276       .  A
C456        C533   1.441       .  S
O457       Zr466   2.446       .  S
O457        C459   1.282       .  A
O458       Zr489   2.380       .  S
O458        C459   1.269       .  A
C459        C738   1.468       .  S
O460       Zr463   2.383       .  S
O460        C462   1.274       .  A
O461       Zr490   2.389       .  S
O461        C462   1.282       .  A
C462        C693   1.444       .  S
Zr463       O464   2.433       .  S
Zr463       O465   2.434       .  S
Zr463       O469   2.382       .  S
Zr463       O470   2.396       .  S
Zr463       O493   2.341       .  S
Zr463       O495   2.322       .  S
O464        H507   0.990       .  S
O465        H506   0.990       .  S
O465        H510   0.990       .  S
Zr466       O467   2.436       .  S
Zr466       O468   2.433       .  S
Zr466       O470   2.359       .  S
Zr466       O469   2.368       .  S
Zr466       O494   2.379       .  S
Zr466       O496   2.374       .  S
O467        H508   0.990       .  S
O467        H511   0.990       .  S
O468        H501   0.990       .  S
O469       Zr489   2.382       .  S
O470       Zr490   2.399       .  S
O470        H497   0.963       .  S
O471       Zr483   2.430       .  S
O471        C473   1.287       .  A
O472       Zr490   2.400       .  S
O472        C473   1.280       .  A
C473        C613   1.457       .  S
O474       Zr486   2.409       .  S
O474        C476   1.281       .  A
O475       Zr489   2.402       .  S
O475        C476   1.274       .  A
C476        C597   1.435       .  S
O477       Zr486   2.441       .  S
O477        C479   1.288       .  A
O478       Zr490   2.409       .  S
O478        C479   1.284       .  A
C479        C709   1.477       .  S
O480       Zr483   2.438       .  S
O480        C482   1.278       .  A
O481       Zr489   2.412       .  S
O481        C482   1.279       .  A
C482        C658   1.481       .  S
Zr483       O484   2.443       .  S
Zr483       O485   2.438       .  S
Zr483       O491   2.345       .  S
Zr483       O492   2.340       .  S
Zr483       O495   2.392       .  S
Zr483       O493   2.375       .  S
O484        H504   0.990       .  S
O484        H509   0.989       .  S
O485        H505   0.990       .  S
Zr486       O487   2.439       .  S
Zr486       O488   2.444       .  S
Zr486       O492   2.379       .  S
Zr486       O491   2.393       .  S
Zr486       O496   2.327       .  S
Zr486       O494   2.364       .  S
O487        H503   0.991       .  S
O488        H502   0.990       .  S
O488        H512   0.990       .  S
Zr489       O492   2.377       .  S
Zr489       O494   2.404       .  S
Zr489       O495   2.376       .  S
Zr490       O491   2.385       .  S
Zr490       O493   2.371       .  S
Zr490       O496   2.366       .  S
O491        H499   0.961       .  S
O494        H498   0.959       .  S
O495        H500   0.957       .  S
C513        C514   1.429       .  A
C513        C518   1.392       .  A
C513        H520   1.082       .  S
C514        C515   1.396       .  A
C515        C522   1.495       .  S
C515        C516   1.388       .  A
C516        C517   1.404       .  A
C516        H521   1.077       .  S
C517        C518   1.395       .  A
C518        C519   1.517       .  S
C519        F523   1.384       .  S
C519        F524   1.384   1_565  S
C519        F525   1.382   1_565  S
C522        F526   1.378       .  S
C522        F527   1.384       .  S
C522        F528   1.380       .  S
C529        C530   1.427       .  A
C529        C534   1.392       .  A
C529        H536   1.081       .  S
C530        C531   1.417       .  A
C531        C538   1.517       .  S
C531        C532   1.396       .  A
C532        C533   1.401       .  A
C532        H537   1.082       .  S
C533        C534   1.391       .  A
C534        C535   1.518       .  S
C535        F539   1.383       .  S
C535        F540   1.383       .  S
C535        F541   1.383       .  S
C538        F542   1.381       .  S
C538        F543   1.378       .  S
C538        F544   1.385       .  S
C545        C546   1.413       .  A
C545        C550   1.407       .  A
C545        H552   1.078       .  S
C546        C547   1.417       .  A
C547        C554   1.533       .  S
C547        C548   1.393       .  A
C548        C549   1.390       .  A
C548        H553   1.062       .  S
C549        C550   1.421       .  A
C550        C551   1.524       .  S
C551        F555   1.385       .  S
C551        F556   1.379       .  S
C551        F557   1.379       .  S
C554        F558   1.375       .  S
C554        F559   1.379       .  S
C554        F560   1.380       .  S
C561        C562   1.408       .  A
C561        C566   1.375       .  A
C561        H568   1.079       .  S
C562        C563   1.413       .  A
C563        C570   1.517       .  S
C563        C564   1.406       .  A
C564        C565   1.408       .  A
C564        H569   1.083       .  S
C565        C566   1.378       .  A
C566        C567   1.502       .  S
C567        F571   1.379       .  S
C567        F572   1.379       .  S
C567        F573   1.382       .  S
C570        F574   1.385       .  S
C570        F575   1.376       .  S
C570        F576   1.383       .  S
C577        C578   1.406       .  A
C577        C582   1.395       .  A
C577        H584   1.079       .  S
C578        C579   1.419       .  A
C579        C586   1.521       .  S
C579        C580   1.392       .  A
C580        C581   1.401       .  A
C580        H585   1.085       .  S
C581        C582   1.402       .  A
C582        C583   1.517       .  S
C583        F587   1.375       .  S
C583        F588   1.382       .  S
C583        F589   1.385       .  S
C586        F590   1.383       .  S
C586        F591   1.384       .  S
C586        F592   1.385       .  S
C593        C594   1.415       .  A
C593        C598   1.379       .  A
C593        H600   1.084       .  S
C594        C595   1.391       .  A
C595        C602   1.519       .  S
C595        C596   1.387       .  A
C596        C597   1.411       .  A
C596        H601   1.078       .  S
C597        C598   1.398       .  A
C598        C599   1.509       .  S
C599        F603   1.382       .  S
C599        F604   1.382       .  S
C599        F605   1.370       .  S
C602        F606   1.381       .  S
C602        F607   1.379       .  S
C602        F608   1.378       .  S
C609        C610   1.420       .  A
C609        C614   1.387       .  A
C609        H616   1.077       .  S
C610        C611   1.434       .  A
C611        C618   1.525       .  S
C611        C612   1.404       .  A
C612        C613   1.400       .  A
C612        H617   1.081       .  S
C613        C614   1.398       .  A
C614        C615   1.517       .  S
C615        F619   1.384       .  S
C615        F620   1.384       .  S
C615        F621   1.383       .  S
C618        F622   1.385       .  S
C618        F623   1.376       .  S
C618        F624   1.380       .  S
C625        C626   1.412       .  A
C625        C630   1.396       .  A
C625        H632   1.083       .  S
C626        C627   1.447       .  A
C627        C634   1.531       .  S
C627        C628   1.392       .  A
C628        C629   1.390       .  A
C628        H633   1.085       .  S
C629        C630   1.408       .  A
C630        C631   1.522       .  S
C631        F635   1.385       .  S
C631        F636   1.374       .  S
C631        F637   1.384       .  S
C634        F638   1.382       .  S
C634        F639   1.377       .  S
C634        F640   1.386       .  S
C641        C642   1.423       .  A
C641        C646   1.385       .  A
C641        H648   1.082       .  S
C642        C643   1.410       .  A
C643        C650   1.523       .  S
C643        C644   1.392       .  A
C644        C645   1.401       .  A
C644        H649   1.071       .  S
C645        C646   1.396       .  A
C646        C647   1.517       .  S
C647        F651   1.384       .  S
C647        F652   1.385       .  S
C647        F653   1.381       .  S
C650        F654   1.381       .  S
C650        F655   1.375       .  S
C650        F656   1.383       .  S
C657        C658   1.409       .  A
C657        C662   1.397       .  A
C657        H664   1.082       .  S
C658        C659   1.433       .  A
C659        C666   1.531       .  S
C659        C660   1.399       .  A
C660        C661   1.392       .  A
C660        H665   1.079       .  S
C661        C662   1.404       .  A
C662        C663   1.522       .  S
C663        F667   1.377       .  S
C663        F668   1.377       .  S
C663        F669   1.382       .  S
C666        F670   1.378       .  S
C666        F671   1.383       .  S
C666        F672   1.384       .  S
C673        C674   1.385       .  A
C673        C678   1.398       .  A
C673        H680   1.075       .  S
C674        C675   1.385       .  A
C675        C682   1.514       .  S
C675        C676   1.384       .  A
C676        C677   1.424       .  A
C676        H681   1.075       .  S
C677        C678   1.450       .  A
C678        C679   1.524       .  S
C679        F683   1.385       .  S
C679        F684   1.379       .  S
C679        F685   1.378       .  S
C682        F686   1.385       .  S
C682        F687   1.381       .  S
C682        F688   1.383       .  S
C689        C690   1.398       .  A
C689        C694   1.384       .  A
C689        H696   1.081       .  S
C690        C691   1.452       .  A
C691        C698   1.537       .  S
C691        C692   1.388       .  A
C692        C693   1.387       .  A
C692        H697   1.084       .  S
C693        C694   1.412       .  A
C694        C695   1.513       .  S
C695        F699   1.385       .  S
C695        F700   1.384       .  S
C695        F701   1.381       .  S
C698        F702   1.378       .  S
C698        F703   1.381       .  S
C698        F704   1.386       .  S
C705        C706   1.422       .  A
C705        C710   1.400       .  A
C705        H712   1.077       .  S
C706        C707   1.439       .  A
C707        C714   1.531       .  S
C707        C708   1.403       .  A
C708        C709   1.405       .  A
C708        H713   1.083       .  S
C709        C710   1.402       .  A
C710        C711   1.517       .  S
C711        F715   1.384       .  S
C711        F716   1.383       .  S
C711        F717   1.384       .  S
C714        F718   1.380       .  S
C714        F719   1.376       .  S
C714        F720   1.387       .  S
C721        C722   1.389       .  A
C721        C726   1.380       .  A
C721        H728   1.072       .  S
C722        C723   1.439       .  A
C723        C730   1.534       .  S
C723        C724   1.394       .  A
C724        C725   1.396       .  A
C724        H729   1.085       .  S
C725        C726   1.415       .  A
C726        C727   1.515       .  S
C727        F731   1.386       .  S
C727        F732   1.381       .  S
C727        F733   1.382       .  S
C730        F734   1.384       .  S
C730        F735   1.376       .  S
C730        F736   1.384       .  S
C737        C738   1.381       .  A
C737        C742   1.394       .  A
C737        H744   1.082       .  S
C738        C739   1.405       .  A
C739        C746   1.522       .  S
C739        C740   1.409       .  A
C740        C741   1.414       .  A
C740        H745   1.082       .  S
C741        C742   1.461       .  A
C742        C743   1.542       .  S
C743        F747   1.388       .  S
C743        F748   1.376       .  S
C743        F749   1.381       .  S
C746        F750   1.384       .  S
C746        F751   1.378       .  S
C746        F752   1.384       .  S
C753        C754   1.407       .  A
C753        C758   1.380       .  A
C753        H760   1.066       .  S
C754        C755   1.416       .  A
C755        C762   1.517       .  S
C755        C756   1.378       .  A
C756        C757   1.408       .  A
C756        H761   1.083       .  S
C757        C758   1.381       .  A
C758        C759   1.510       .  S
C759        F763   1.374       .  S
C759        F764   1.383       .  S
C759        F765   1.380       .  S
C762        F766   1.373   1_554  S
C762        F768   1.386       .  S
C762       F1535   1.376       .  S
F767       C1530   1.372       .  S
C769        C771   1.557       .  S
C769        C773   1.563       .  S
C769        C772   1.574       .  S
C769       C1525   1.501       .  S
C770        C774   1.556       .  S
C770        C776   1.612       .  S
C770        C775   1.564       .  S
C770       C1509   1.530       .  S
C771        C779   1.399       .  A
C771        C774   1.368       .  A
C772        C783   1.426       .  A
C772        C775   1.373       .  A
C773        C787   1.404       .  A
C773        C776   1.389       .  A
C774        C777   1.411       .  A
C775        C781   1.400       .  A
C776        C784   1.437       .  A
C777        N778   1.372       .  A
C777        H790   1.081       .  S
N778        C779   1.366       .  A
N778        C812   1.484       .  S
C779        H780   1.083       .  S
C781        N782   1.355       .  A
C781        H791   1.078       .  S
N782        C783   1.376       .  A
N782        C872   1.492       .  S
C783        H789   1.070       .  S
C784        N785   1.399       .  A
C784        H786   1.082       .  S
N785        C787   1.365       .  A
N785       C1053   1.519       .  S
C787        H788   1.082       .  S
N792        C797   1.368       .  A
N792        C796   1.370       .  A
N792        H824   1.039       .  S
N793        C800   1.367   1_655  A
N793        C801   1.368       .  A
N794        C799   1.369       .  A
N794        C798   1.372       .  A
N794        H825   1.040       .  S
N795        C802   1.370   1_655  A
N795        C803   1.369       .  A
C796        C804   1.386       .  A
C796        C812   1.444       .  A
C797        C813   1.450       .  A
C797        C805   1.390       .  A
C798        C806   1.386       .  A
C798        C815   1.448       .  A
C799        C814   1.447       .  A
C799        C807   1.386       .  A
C800        C812   1.440       .  A
C800        C808   1.386       .  A
C801        C815   1.439       .  A
C801        C809   1.385       .  A
C802        C810   1.383       .  A
C802        C813   1.440       .  A
C803        C811   1.388       .  A
C803        C814   1.447       .  A
C804        C805   1.387       .  A
C804        H816   1.082       .  S
C805        H817   1.082       .  S
C806        C807   1.388       .  A
C806        H818   1.082       .  S
C807        H819   1.080       .  S
C808        C809   1.376   1_455  A
C808        H820   1.082       .  S
C809        H821   1.081       .  S
C810        C811   1.378   1_455  A
C810        H822   1.082       .  S
C811        H823   1.081       .  S
C813       N1143   1.485       .  S
C814        N835   1.488       .  S
C815       N1097   1.490       .  S
C826        C828   1.564       .  S
C826        C830   1.538       .  S
C826        C829   1.543       .  S
C826       C1490   1.497       .  S
C827        C831   1.592       .  S
C827        C833   1.566       .  S
C827        C832   1.587       .  S
C827       C1474   1.542       .  S
C828        C836   1.395       .  A
C828        C831   1.398       .  A
C829        C840   1.396       .  A
C829        C832   1.373       .  A
C830        C844   1.407       .  A
C830        C833   1.367       .  A
C831        C834   1.416       .  A
C832        C838   1.424       .  A
C833        C841   1.399       .  A
C834        N835   1.377       .  A
C834        H847   1.077       .  S
N835        C836   1.363       .  A
C836        H837   1.082       .  S
C838        N839   1.380       .  A
C838        H848   1.082       .  S
N839        C840   1.361       .  A
N839        C903   1.490       .  S
C840        H846   1.082       .  S
C841        N842   1.367       .  A
C841        H843   1.082       .  S
N842        C844   1.367       .  A
N842       C1020   1.479       .  S
C844        H845   1.082       .  S
N849        C854   1.369       .  A
N849        C853   1.366       .  A
N849        H881   1.039       .  S
N850        C857   1.366   1_545  A
N850        C858   1.370       .  A
N851        C856   1.367       .  A
N851        C855   1.371       .  A
N851        H882   1.040       .  S
N852        C859   1.368   1_545  A
N852        C860   1.366       .  A
C853        C861   1.386       .  A
C853        C869   1.439       .  A
C854        C870   1.443       .  A
C854        C862   1.387       .  A
C855        C863   1.388       .  A
C855        C872   1.448       .  A
C856        C871   1.440       .  A
C856        C864   1.386       .  A
C857        C869   1.442       .  A
C857        C865   1.385   1_565  A
C858        C872   1.439       .  A
C858        C866   1.383       .  A
C859        C867   1.385       .  A
C859        C870   1.440       .  A
C860        C868   1.387       .  A
C860        C871   1.442       .  A
C861        C862   1.384       .  A
C861        H873   1.082       .  S
C862        H874   1.082       .  S
C863        C864   1.382       .  A
C863        H875   1.081       .  S
C864        H876   1.082       .  S
C865        C866   1.381       .  A
C865        H877   1.079   1_545  S
C866        H878   1.082       .  S
C867        C868   1.381   1_565  A
C867        H879   1.082       .  S
C868        H880   1.082       .  S
C869       N1147   1.479       .  S
C870        N930   1.485       .  S
C871       N1124   1.480       .  S
N883        C888   1.373       .  A
N883        C887   1.370   1_545  A
N883        H915   1.040       .  S
N884        C891   1.371       .  A
N884        C892   1.372       .  A
N885        C890   1.369       .  A
N885        C889   1.372   1_545  A
N885        H916   1.040       .  S
N886        C893   1.373       .  A
N886        C894   1.370       .  A
C887        C895   1.388       .  A
C887        C903   1.450       .  A
C888        C904   1.444       .  A
C888        C896   1.384       .  A
C889        C897   1.384       .  A
C889        C906   1.442       .  A
C890        C905   1.451       .  A
C890        C898   1.391       .  A
C891        C903   1.444       .  A
C891        C899   1.384       .  A
C892        C906   1.453       .  A
C892        C900   1.389       .  A
C893        C901   1.386       .  A
C893        C904   1.449       .  A
C894        C902   1.387       .  A
C894        C905   1.447       .  A
C895        C896   1.386   1_565  A
C895        H907   1.081       .  S
C896        H908   1.082       .  S
C897        C898   1.384   1_565  A
C897        H909   1.082       .  S
C898        H910   1.081       .  S
C899        C900   1.382       .  A
C899        H911   1.082       .  S
C900        H912   1.082       .  S
C901        C902   1.381       .  A
C901        H913   1.082       .  S
C902        H914   1.082       .  S
C904       N1104   1.495       .  S
C905        N990   1.486       .  S
C906       N1081   1.494       .  S
C917        C919   1.556       .  S
C917        C921   1.557       .  S
C917        C920   1.586       .  S
C917       C1445   1.518       .  S
C918        C922   1.577       .  S
C918        C924   1.541       .  S
C918        C923   1.545       .  S
C918       C1458   1.502       .  S
C919        C927   1.388       .  A
C919        C922   1.394       .  A
C920        C931   1.416       .  A
C920        C923   1.382       .  A
C921        C935   1.409       .  A
C921        C924   1.349       .  A
C922        C925   1.407       .  A
C923        C929   1.391       .  A
C924        C932   1.401       .  A
C925        N926   1.372       .  A
C925        H938   1.082       .  S
N926        C927   1.364       .  A
N926        C961   1.480       .  S
C927        H928   1.074       .  S
C929        N930   1.362       .  A
C929        H939   1.080       .  S
N930        C931   1.376       .  A
C931        H937   1.082       .  S
C932        N933   1.366       .  A
C932        H934   1.082       .  S
N933        C935   1.363       .  A
N933       C1018   1.481       .  S
C935        H936   1.078       .  S
N940        C945   1.368       .  A
N940        C944   1.370       .  A
N940        H972   1.041       .  S
N941        C948   1.366   1_655  A
N941        C949   1.367       .  A
N942        C947   1.369       .  A
N942        C946   1.366       .  A
N942        H973   1.039       .  S
N943        C950   1.364   1_655  A
N943        C951   1.366       .  A
C944        C952   1.386       .  A
C944        C960   1.443       .  A
C945        C961   1.444       .  A
C945        C953   1.388       .  A
C946        C954   1.388       .  A
C946        C963   1.443       .  A
C947        C962   1.441       .  A
C947        C955   1.386       .  A
C948        C960   1.441       .  A
C948        C956   1.388       .  A
C949        C963   1.434       .  A
C949        C957   1.382       .  A
C950        C958   1.387       .  A
C950        C961   1.437       .  A
C951        C959   1.384       .  A
C951        C962   1.434       .  A
C952        C953   1.386       .  A
C952        H964   1.081       .  S
C953        H965   1.081       .  S
C954        C955   1.387       .  A
C954        H966   1.082       .  S
C955        H967   1.082       .  S
C956        C957   1.377   1_455  A
C956        H968   1.082       .  S
C957        H969   1.080       .  S
C958        C959   1.379   1_455  A
C958        H970   1.082       .  S
C959        H971   1.082       .  S
C960       N1120   1.487       .  S
C962       N1074   1.480       .  S
C963        N983   1.478       .  S
C974        C976   1.579       .  S
C974        C978   1.564       .  S
C974        C977   1.567       .  S
C974       C1429   1.515       .  S
C975        C979   1.569       .  S
C975        C981   1.548       .  S
C975        C980   1.567       .  S
C975       C1410   1.510       .  S
C976        C984   1.399       .  A
C976        C979   1.396       .  A
C977        C988   1.413       .  A
C977        C980   1.375       .  A
C978        C992   1.413       .  A
C978        C981   1.359       .  A
C979        C982   1.411       .  A
C980        C986   1.404       .  A
C981        C989   1.401       .  A
C982        N983   1.372       .  A
C982        H995   1.080       .  S
N983        C984   1.356       .  A
C984        H985   1.071       .  S
C986        N987   1.367       .  A
C986        H996   1.082       .  S
N987        C988   1.379       .  A
N987       C1051   1.493       .  S
C988        H994   1.082       .  S
C989        N990   1.364       .  A
C989        H991   1.082       .  S
N990        C992   1.372       .  A
C992        H993   1.080       .  S
N997       C1002   1.363       .  A
N997       C1001   1.367       .  A
N997       H1029   1.042       .  S
N998       C1005   1.368       .  A
N999       C1004   1.364       .  A
N999       C1003   1.362       .  A
N999       H1030   1.041       .  S
N1000      C1007   1.368       .  A
C1001      C1009   1.383       .  A
C1001      C1017   1.430       .  A
C1002      C1018   1.437       .  A
C1002      C1010   1.389       .  A
C1003      C1011   1.388       .  A
C1003      C1020   1.431       .  A
C1004      C1019   1.426       .  A
C1004      C1012   1.384       .  A
C1005      C1017   1.445       .  A
C1005      C1013   1.387       .  A
C1006      C1020   1.445       .  A
C1006      C1014   1.385       .  A
C1007      C1015   1.387       .  A
C1007      C1018   1.447       .  A
C1008      C1016   1.387       .  A
C1008      C1019   1.457       .  A
C1009      C1010   1.379       .  A
C1009      H1021   1.081       .  S
C1010      H1022   1.082       .  S
C1011      C1012   1.376       .  A
C1011      H1023   1.082       .  S
C1012      H1024   1.082       .  S
C1013      H1025   1.080       .  S
C1014      H1026   1.082       .  S
C1015      H1027   1.081       .  S
C1016      H1028   1.081       .  S
C1017      N1078   1.484       .  S
C1019      N1150   1.488       .  S
N1031      C1035   1.372       .  A
N1031      H1063   1.040       .  S
N1032      C1039   1.371       .  A
N1032      C1040   1.364       .  A
N1033      C1037   1.379   1_554  A
N1033      H1064   1.040       .  S
N1034      C1041   1.376       .  A
N1034      C1042   1.377       .  A
C1035      C1043   1.386       .  A
C1035      C1051   1.445       .  A
C1036      C1052   1.454       .  A
C1036      C1044   1.387       .  A
C1037      C1045   1.387       .  A
C1037      C1054   1.469       .  A
C1038      C1053   1.483       .  A
C1038      C1046   1.392       .  A
C1039      C1051   1.436       .  A
C1039      C1047   1.382       .  A
C1040      C1054   1.444       .  A
C1040      C1048   1.390       .  A
C1041      C1049   1.384       .  A
C1041      C1052   1.458       .  A
C1042      C1050   1.385       .  A
C1042      C1053   1.454       .  A
C1043      H1055   1.082       .  S
C1044      H1056   1.081       .  S
C1045      H1057   1.081       .  S
C1046      H1058   1.081       .  S
C1047      C1048   1.378       .  A
C1047      H1059   1.082       .  S
C1048      H1060   1.082       .  S
C1049      C1050   1.379       .  A
C1049      H1061   1.077       .  S
C1050      H1062   1.081       .  S
C1052      N1101   1.502       .  S
C1054      N1127   1.494       .  S
C1065      C1067   1.554       .  S
C1065      C1069   1.583       .  S
C1065      C1068   1.551       .  S
C1065      C1394   1.514       .  S
C1066      C1070   1.577       .  S
C1066      C1072   1.551       .  S
C1066      C1071   1.573       .  S
C1066      C1378   1.524       .  S
C1067      C1075   1.399       .  A
C1067      C1070   1.380       .  A
C1068      C1079   1.390       .  A
C1068      C1071   1.378       .  A
C1069      C1083   1.428       .  A
C1069      C1072   1.378       .  A
C1070      C1073   1.411       .  A
C1071      C1077   1.418       .  A
C1072      C1080   1.389       .  A
C1073      N1074   1.370       .  A
C1073      H1086   1.082       .  S
N1074      C1075   1.366       .  A
C1075      H1076   1.081       .  S
C1077      N1078   1.381       .  A
C1077      H1087   1.080       .  S
N1078      C1079   1.355       .  A
C1079      H1085   1.080       .  S
C1080      N1081   1.356       .  A
C1080      H1082   1.082       .  S
N1081      C1083   1.388       .  A
C1083      H1084   1.082       .  S
C1088      C1090   1.583       .  S
C1088      C1092   1.562       .  S
C1088      C1091   1.581       .  S
C1088      C1349   1.481       .  S
C1089      C1093   1.565       .  S
C1089      C1095   1.547       .  S
C1089      C1094   1.559       .  S
C1089      C1362   1.473       .  S
C1090      C1098   1.406       .  A
C1090      C1093   1.392       .  A
C1091      C1102   1.421       .  A
C1091      C1094   1.356       .  A
C1092      C1106   1.419       .  A
C1092      C1095   1.354       .  A
C1093      C1096   1.407       .  A
C1094      C1100   1.406       .  A
C1095      C1103   1.402       .  A
C1096      N1097   1.369       .  A
C1096      H1109   1.077       .  S
N1097      C1098   1.372       .  A
C1098      H1099   1.077       .  S
C1100      N1101   1.370       .  A
C1100      H1110   1.082       .  S
N1101      C1102   1.377       .  A
C1102      H1108   1.079       .  S
C1103      N1104   1.365       .  A
C1103      H1105   1.082       .  S
N1104      C1106   1.381       .  A
C1106      H1107   1.082       .  S
C1111      C1113   1.563       .  S
C1111      C1115   1.582       .  S
C1111      C1114   1.594       .  S
C1111      C1317   1.531       .  S
C1112      C1116   1.544       .  S
C1112      C1118   1.573       .  S
C1112      C1117   1.558       .  S
C1112      C1333   1.514       .  S
C1113      C1121   1.410       .  A
C1113      C1116   1.379       .  A
C1114      C1125   1.425       .  A
C1114      C1117   1.383       .  A
C1115      C1129   1.409       .  A
C1115      C1118   1.377       .  A
C1116      C1119   1.388       .  A
C1117      C1123   1.402       .  A
C1118      C1126   1.421       .  A
C1119      N1120   1.367       .  A
C1119      H1132   1.082       .  S
N1120      C1121   1.377       .  A
C1121      H1122   1.080       .  S
C1123      N1124   1.350       .  A
C1123      H1133   1.069       .  S
N1124      C1125   1.362       .  A
C1125      H1131   1.067       .  S
C1126      N1127   1.368       .  A
C1126      H1128   1.078       .  S
N1127      C1129   1.369       .  A
C1129      H1130   1.078       .  S
C1134      C1136   1.550       .  S
C1134      C1138   1.584       .  S
C1134      C1137   1.571       .  S
C1134      C1298   1.522       .  S
C1135      C1139   1.587       .  S
C1135      C1141   1.552       .  S
C1135      C1140   1.552       .  S
C1135      C1282   1.527       .  S
C1136      C1144   1.388       .  A
C1136      C1139   1.391       .  A
C1137      C1148   1.412       .  A
C1137      C1140   1.363       .  A
C1138      C1152   1.424       .  A
C1138      C1141   1.380       .  A
C1139      C1142   1.423       .  A
C1140      C1146   1.400       .  A
C1141      C1149   1.396       .  A
C1142      N1143   1.380       .  A
C1142      H1155   1.074       .  S
N1143      C1144   1.356       .  A
C1144      H1145   1.082       .  S
C1146      N1147   1.362       .  A
C1146      H1156   1.082       .  S
N1147      C1148   1.369       .  A
C1148      H1154   1.082       .  S
C1149      N1150   1.352       .  A
C1149      H1151   1.081       .  S
N1150      C1152   1.384       .  A
C1152      H1153   1.078       .  S
O1157     Zr1169   2.405       .  S
O1157      C1159   1.264       .  A
O1158      C1159   1.281       .  A
C1159      C1522   1.465       .  S
O1160     Zr1172   2.379   1_665  S
O1160      C1162   1.271       .  A
O1161      C1162   1.279       .  A
C1162      C1493   1.461       .  S
O1163     Zr1172   2.441       .  S
O1163      C1165   1.280   1_545  A
O1164      C1165   1.266   1_545  A
C1165      C1285   1.448       .  S
O1166     Zr1169   2.427   1_655  S
O1166      C1168   1.280       .  A
O1167      C1168   1.267       .  A
C1168      C1346   1.439       .  S
Zr1169     O1170   2.431       .  S
Zr1169     O1171   2.439   1_455  S
Zr1169     O1175   2.384       .  S
Zr1169     O1176   2.397   1_455  S
O1170      H1213   0.989       .  S
O1171      H1212   0.990       .  S
O1171      H1216   0.990       .  S
Zr1172     O1173   2.431       .  S
Zr1172     O1174   2.432   1_545  S
Zr1172     O1176   2.367   1_455  S
Zr1172     O1175   2.353       .  S
O1173      H1214   0.990   1_455  S
O1173      H1217   0.990       .  S
O1174      H1207   0.989       .  S
O1176      H1203   0.965       .  S
O1177     Zr1189   2.398   1_655  S
O1177      C1179   1.266       .  A
O1178     Zr1196   2.386       .  S
O1178      C1179   1.257       .  A
C1179      C1413   1.447       .  S
O1180     Zr1192   2.422       .  S
O1180      C1182   1.276       .  A
O1181     Zr1195   2.380   1_565  S
O1181      C1182   1.274       .  A
C1182      C1442   1.455       .  S
O1183     Zr1192   2.436   1_655  S
O1183      C1185   1.284       .  A
O1184     Zr1196   2.346   1_565  S
O1184      C1185   1.268       .  A
C1185      C1397   1.459       .  S
O1186     Zr1189   2.447       .  S
O1186      C1188   1.282       .  A
O1187     Zr1195   2.380       .  S
O1187      C1188   1.268       .  A
C1188      C1330   1.465       .  S
Zr1189     O1190   2.438   1_455  S
Zr1189     O1191   2.436       .  S
Zr1189     O1197   2.391   1_445  S
Zr1189     O1198   2.382   1_545  S
Zr1189     O1201   2.358       .  S
Zr1189     O1199   2.376   1_455  S
O1190      H1210   0.990   1_545  S
O1190      H1215   0.990       .  S
O1191      H1211   0.990       .  S
Zr1192     O1193   2.437       .  S
Zr1192     O1194   2.444       .  S
Zr1192     O1198   2.366       .  S
Zr1192     O1197   2.355   1_455  S
Zr1192     O1200   2.362   1_556  S
Zr1192     O1202   2.287   1_456  S
O1193      H1209   0.989       .  S
O1194      H1208   0.989   1_556  S
O1194      H1218   0.990       .  S
Zr1195     O1198   2.418   1_545  S
Zr1195     O1200   2.381   1_546  S
Zr1195     O1201   2.438       .  S
Zr1196     O1197   2.437   1_545  S
Zr1196     O1199   2.417       .  S
Zr1196     O1202   2.257   1_546  S
O1197      H1205   0.971       .  S
O1200      H1204   0.945       .  S
O1201      H1206   0.956       .  S
O1219     Zr1231   2.391       .  S
O1219      C1221   1.280       .  A
O1220     Zr1257   2.413       .  S
O1220      C1221   1.279       .  A
C1221      C1314   1.479       .  S
O1222     Zr1234   2.418       .  S
O1222      C1224   1.282       .  A
O1223     Zr1258   2.402       .  S
O1223      C1224   1.276       .  A
C1224      C1301   1.434       .  S
O1225     Zr1234   2.455       .  S
O1225      C1227   1.283       .  A
O1226     Zr1257   2.389       .  S
O1226      C1227   1.269       .  A
C1227      C1506   1.479       .  S
O1228     Zr1231   2.384       .  S
O1228      C1230   1.272       .  A
O1229     Zr1258   2.397       .  S
O1229      C1230   1.283       .  A
C1230      C1461   1.448       .  S
Zr1231     O1232   2.438       .  S
Zr1231     O1233   2.435       .  S
Zr1231     O1237   2.377       .  S
Zr1231     O1238   2.393       .  S
Zr1231     O1261   2.331       .  S
Zr1231     O1263   2.326       .  S
O1232      H1275   0.990       .  S
O1233      H1274   0.990       .  S
O1233      H1278   0.990       .  S
Zr1234     O1235   2.436       .  S
Zr1234     O1236   2.434       .  S
Zr1234     O1238   2.362       .  S
Zr1234     O1237   2.361       .  S
Zr1234     O1262   2.377       .  S
Zr1234     O1264   2.375       .  S
O1235      H1276   0.990       .  S
O1235      H1279   0.990       .  S
O1236      H1269   0.990       .  S
O1237     Zr1257   2.371       .  S
O1238     Zr1258   2.386       .  S
O1238      H1265   0.962       .  S
O1239     Zr1251   2.427       .  S
O1239      C1241   1.287       .  A
O1240     Zr1258   2.400       .  S
O1240      C1241   1.280       .  A
C1241      C1381   1.455       .  S
O1242     Zr1254   2.398       .  S
O1242      C1244   1.279       .  A
O1243     Zr1257   2.401       .  S
O1243      C1244   1.272       .  A
C1244      C1365   1.430       .  S
O1245     Zr1254   2.446       .  S
O1245      C1247   1.289       .  A
O1246     Zr1258   2.402       .  S
O1246      C1247   1.283       .  A
C1247      C1477   1.481       .  S
O1248     Zr1251   2.444       .  S
O1248      C1250   1.281       .  A
O1249     Zr1257   2.403       .  S
O1249      C1250   1.277       .  A
C1250      C1426   1.484       .  S
Zr1251     O1252   2.442       .  S
Zr1251     O1253   2.438       .  S
Zr1251     O1259   2.349       .  S
Zr1251     O1260   2.330       .  S
Zr1251     O1263   2.396       .  S
Zr1251     O1261   2.374       .  S
O1252      H1272   0.990       .  S
O1252      H1277   0.989       .  S
O1253      H1273   0.989       .  S
Zr1254     O1255   2.436       .  S
Zr1254     O1256   2.440       .  S
Zr1254     O1260   2.378       .  S
Zr1254     O1259   2.387       .  S
Zr1254     O1264   2.319       .  S
Zr1254     O1262   2.369       .  S
O1255      H1271   0.990       .  S
O1256      H1270   0.990       .  S
O1256      H1280   0.989       .  S
Zr1257     O1260   2.374       .  S
Zr1257     O1262   2.411       .  S
Zr1257     O1263   2.384       .  S
Zr1258     O1259   2.380       .  S
Zr1258     O1261   2.368       .  S
Zr1258     O1264   2.367       .  S
O1259      H1267   0.961       .  S
O1262      H1266   0.960       .  S
O1263      H1268   0.960       .  S
C1281      C1282   1.437       .  A
C1281      C1286   1.386       .  A
C1281      H1288   1.078       .  S
C1282      C1283   1.421       .  A
C1283      C1290   1.517       .  S
C1283      C1284   1.403       .  A
C1284      C1285   1.404       .  A
C1284      H1289   1.073       .  S
C1285      C1286   1.380       .  A
C1286      C1287   1.519   1_565  S
C1287      F1291   1.382       .  S
C1287      F1292   1.383       .  S
C1287      F1293   1.385       .  S
C1290      F1294   1.377       .  S
C1290      F1295   1.379       .  S
C1290      F1296   1.377       .  S
C1297      C1298   1.424       .  A
C1297      C1302   1.387       .  A
C1297      H1304   1.081       .  S
C1298      C1299   1.420       .  A
C1299      C1306   1.519       .  S
C1299      C1300   1.396       .  A
C1300      C1301   1.402       .  A
C1300      H1305   1.084       .  S
C1301      C1302   1.392       .  A
C1302      C1303   1.520       .  S
C1303      F1307   1.384       .  S
C1303      F1308   1.382       .  S
C1303      F1309   1.382       .  S
C1306      F1310   1.382       .  S
C1306      F1311   1.377       .  S
C1306      F1312   1.385       .  S
C1313      C1314   1.415       .  A
C1313      C1318   1.408       .  A
C1313      H1320   1.083       .  S
C1314      C1315   1.409       .  A
C1315      C1322   1.525       .  S
C1315      C1316   1.393       .  A
C1316      C1317   1.393       .  A
C1316      H1321   1.064       .  S
C1317      C1318   1.419       .  A
C1318      C1319   1.524       .  S
C1319      F1323   1.385       .  S
C1319      F1324   1.380       .  S
C1319      F1325   1.381       .  S
C1322      F1326   1.376       .  S
C1322      F1327   1.379       .  S
C1322      F1328   1.381       .  S
C1329      C1330   1.405       .  A
C1329      C1334   1.380       .  A
C1329      H1336   1.071       .  S
C1330      C1331   1.410       .  A
C1331      C1338   1.518       .  S
C1331      C1332   1.410       .  A
C1332      C1333   1.407       .  A
C1332      H1337   1.082       .  S
C1333      C1334   1.382       .  A
C1334      C1335   1.507       .  S
C1335      F1339   1.378       .  S
C1335      F1340   1.379       .  S
C1335      F1341   1.380       .  S
C1338      F1342   1.384       .  S
C1338      F1343   1.371       .  S
C1338      F1344   1.383       .  S
C1345      C1346   1.408       .  A
C1345      C1350   1.386       .  A
C1345      H1352   1.078       .  S
C1346      C1347   1.419       .  A
C1347      C1354   1.522       .  S
C1347      C1348   1.385       .  A
C1348      C1349   1.398       .  A
C1348      H1353   1.085       .  S
C1349      C1350   1.393       .  A
C1350      C1351   1.517       .  S
C1351      F1355   1.383       .  S
C1351      F1356   1.383       .  S
C1351      F1357   1.383       .  S
C1354      F1358   1.383       .  S
C1354      F1359   1.383       .  S
C1354      F1360   1.384       .  S
C1361      C1362   1.414       .  A
C1361      C1366   1.372       .  A
C1361      H1368   1.084       .  S
C1362      C1363   1.395       .  A
C1363      C1370   1.520       .  S
C1363      C1364   1.387       .  A
C1364      C1365   1.412       .  A
C1364      H1369   1.078       .  S
C1365      C1366   1.396       .  A
C1366      C1367   1.510       .  S
C1367      F1371   1.383       .  S
C1367      F1372   1.380       .  S
C1367      F1373   1.376       .  S
C1370      F1374   1.381       .  S
C1370      F1375   1.378       .  S
C1370      F1376   1.377       .  S
C1377      C1378   1.420       .  A
C1377      C1382   1.389       .  A
C1377      H1384   1.078       .  S
C1378      C1379   1.436       .  A
C1379      C1386   1.525       .  S
C1379      C1380   1.402       .  A
C1380      C1381   1.399       .  A
C1380      H1385   1.083       .  S
C1381      C1382   1.399       .  A
C1382      C1383   1.517       .  S
C1383      F1387   1.383       .  S
C1383      F1388   1.384       .  S
C1383      F1389   1.383       .  S
C1386      F1390   1.386       .  S
C1386      F1391   1.376       .  S
C1386      F1392   1.381       .  S
C1393      C1394   1.410       .  A
C1393      C1398   1.398       .  A
C1393      H1400   1.084       .  S
C1394      C1395   1.446       .  A
C1395      C1402   1.530       .  S
C1395      C1396   1.395       .  A
C1396      C1397   1.392       .  A
C1396      H1401   1.085       .  S
C1397      C1398   1.411       .  A
C1398      C1399   1.523       .  S
C1399      F1403   1.384       .  S
C1399      F1404   1.377       .  S
C1399      F1405   1.385       .  S
C1402      F1406   1.381       .  S
C1402      F1407   1.377       .  S
C1402      F1408   1.386       .  S
C1409      C1410   1.421       .  A
C1409      C1414   1.383       .  A
C1409      H1416   1.079       .  S
C1410      C1411   1.427       .  A
C1411      C1418   1.524       .  S
C1411      C1412   1.397       .  A
C1412      C1413   1.396       .  A
C1412      H1417   1.073       .  S
C1413      C1414   1.397       .  A
C1414      C1415   1.520       .  S
C1415      F1419   1.383       .  S
C1415      F1420   1.385       .  S
C1415      F1421   1.382       .  S
C1418      F1422   1.382       .  S
C1418      F1423   1.374       .  S
C1418      F1424   1.384       .  S
C1425      C1426   1.411       .  A
C1425      C1430   1.401       .  A
C1425      H1432   1.082       .  S
C1426      C1427   1.430       .  A
C1427      C1434   1.528       .  S
C1427      C1428   1.397       .  A
C1428      C1429   1.391       .  A
C1428      H1433   1.078       .  S
C1429      C1430   1.411       .  A
C1430      C1431   1.525       .  S
C1431      F1435   1.380       .  S
C1431      F1436   1.377       .  S
C1431      F1437   1.381       .  S
C1434      F1438   1.378       .  S
C1434      F1439   1.384       .  S
C1434      F1440   1.383       .  S
C1441      C1442   1.392       .  A
C1441      C1446   1.399       .  A
C1441      H1448   1.082       .  S
C1442      C1443   1.397       .  A
C1443      C1450   1.517       .  S
C1443      C1444   1.385       .  A
C1444      C1445   1.415       .  A
C1444      H1449   1.075       .  S
C1445      C1446   1.453       .  A
C1446      C1447   1.531       .  S
C1447      F1451   1.386       .  S
C1447      F1452   1.379       .  S
C1447      F1453   1.377       .  S
C1450      F1454   1.383       .  S
C1450      F1455   1.381       .  S
C1450      F1456   1.384       .  S
C1457      C1458   1.401       .  A
C1457      C1462   1.385       .  A
C1457      H1464   1.076       .  S
C1458      C1459   1.449       .  A
C1459      C1466   1.536       .  S
C1459      C1460   1.391       .  A
C1460      C1461   1.388       .  A
C1460      H1465   1.085       .  S
C1461      C1462   1.417       .  A
C1462      C1463   1.525       .  S
C1463      F1467   1.386       .  S
C1463      F1468   1.382       .  S
C1463      F1469   1.379       .  S
C1466      F1470   1.378       .  S
C1466      F1471   1.380       .  S
C1466      F1472   1.387       .  S
C1473      C1474   1.424       .  A
C1473      C1478   1.403       .  A
C1473      H1480   1.076       .  S
C1474      C1475   1.439       .  A
C1475      C1482   1.527       .  S
C1475      C1476   1.404       .  A
C1476      C1477   1.402       .  A
C1476      H1481   1.081       .  S
C1477      C1478   1.403       .  A
C1478      C1479   1.518       .  S
C1479      F1483   1.384       .  S
C1479      F1484   1.383       .  S
C1479      F1485   1.385       .  S
C1482      F1486   1.377       .  S
C1482      F1487   1.378       .  S
C1482      F1488   1.386       .  S
C1489      C1490   1.400       .  A
C1489      C1494   1.391       .  A
C1489      H1496   1.075       .  S
C1490      C1491   1.430       .  A
C1491      C1498   1.533       .  S
C1491      C1492   1.387       .  A
C1492      C1493   1.397       .  A
C1492      H1497   1.085       .  S
C1493      C1494   1.419       .  A
C1494      C1495   1.523       .  S
C1495      F1499   1.384       .  S
C1495      F1500   1.383       .  S
C1495      F1501   1.383       .  S
C1498      F1502   1.385       .  S
C1498      F1503   1.376       .  S
C1498      F1504   1.382       .  S
C1505      C1506   1.383       .  A
C1505      C1510   1.396       .  A
C1505      H1512   1.082       .  S
C1506      C1507   1.409       .  A
C1507      C1514   1.521       .  S
C1507      C1508   1.411       .  A
C1508      C1509   1.414       .  A
C1508      H1513   1.081       .  S
C1509      C1510   1.459       .  A
C1510      C1511   1.540       .  S
C1511      F1515   1.387       .  S
C1511      F1516   1.375       .  S
C1511      F1517   1.382       .  S
C1514      F1518   1.384       .  S
C1514      F1519   1.375       .  S
C1514      F1520   1.384       .  S
C1521      C1522   1.410       .  A
C1521      C1526   1.392       .  A
C1521      H1528   1.070       .  S
C1522      C1523   1.421       .  A
C1523      C1530   1.519       .  S
C1523      C1524   1.387       .  A
C1524      C1525   1.407       .  A
C1524      H1529   1.082       .  S
C1525      C1526   1.391       .  A
C1526      C1527   1.510       .  S
C1527      F1531   1.378       .  S
C1527      F1532   1.383       .  S
C1527      F1533   1.383       .  S
C1530      F1534   1.377       .  S
C1530      F1536   1.386       .  S
