geometry optimzed in LAMMPS
_audit_creation_date              2020-12-01 
_audit_creation_method            'lammps2cif' 
_symmetry_space_group_name_H-M    'P1' 
_symmetry_Int_Tables_number       1 
_symmetry_cell_setting            triclinic 
loop_ 
_symmetry_equiv_pos_as_xyz 
  x,y,z 
_cell_length_a                    38.27052542 
_cell_length_b                    40.394543736646476 
_cell_length_c                    55.98832569971328 
_cell_angle_alpha                 89.98931533984431 
_cell_angle_beta                  90.01974248144684 
_cell_angle_gamma                 89.96075325667952 
loop_ 
_atom_site_label 
_atom_site_type_symbol 
_atom_site_fract_x 
_atom_site_fract_y 
_atom_site_fract_z 
_atom_site_charge 
In1        In  0.93211811  0.42342996  0.10764236     1.36900
C2          C  0.95058121  0.35974073  0.10457443     0.78300
O3          O  0.93119264  0.42757643  0.06799189    -0.60100
O4          O  0.97148689  0.45266864  0.08676822    -0.51100
C5          C  0.86822153  0.44989327  0.10834180     0.71000
O6          O  0.87376961  0.41929445  0.11087015    -0.45900
C7          C  0.95195371  0.43707153  0.15202383     0.75700
O8          O  0.91981921  0.36967676  0.10088064    -0.57800
O9          O  0.96654284  0.45007365  0.13409832    -0.47900
O10         O  0.97177262  0.38263420  0.10935377    -0.54200
C11         C  0.95794727  0.44571864  0.06684762     0.85900
O12         O  0.89545316  0.46700085  0.10549888    -0.56100
O13         O  0.92717228  0.41795739  0.14688006    -0.59400
In14       In  0.55511804  0.55895078  0.11920428     1.36900
C15         C  0.53296998  0.62136739  0.11848489     0.78300
O16         O  0.54601766  0.56079209  0.07968921    -0.60100
O17         O  0.52531724  0.52011428  0.09869262    -0.51100
C18         C  0.62049245  0.53649477  0.11614010     0.71000
O19         O  0.61322224  0.56697622  0.11557368    -0.45900
C20         C  0.53720487  0.54704299  0.16431032     0.75700
O21         O  0.56455826  0.61348199  0.11536047    -0.57800
O22         O  0.52039362  0.53535215  0.14682484    -0.47900
O23         O  0.51274191  0.59707551  0.12151721    -0.54200
C24         C  0.52952118  0.53382538  0.07866102     0.85900
O25         O  0.59431483  0.51798877  0.11866038    -0.56100
O26         O  0.56402823  0.56312531  0.15849747    -0.59400
In27       In  0.05960321  0.55324900  0.86495135     1.36900
C28         C  0.04162959  0.61641321  0.86895673     0.78300
O29         O  0.06411030  0.56161378  0.82589207    -0.60100
O30         O  0.02341478  0.53031846  0.83771342    -0.51100
C31         C  0.12356549  0.52737509  0.86603954     0.71000
O32         O  0.11742218  0.55760089  0.86983501    -0.45900
C33         C  0.03677618  0.52810988  0.90584709     0.75700
O34         O  0.07294138  0.60706632  0.86695189    -0.57800
O35         O  0.02766385  0.51666390  0.88582065    -0.47900
O36         O  0.01957863  0.59317772  0.86924394    -0.54200
C37         C  0.03856035  0.54375383  0.82015933     0.85900
O38         O  0.09676336  0.51069897  0.86111730    -0.56100
O39         O  0.05675706  0.55280954  0.90461943    -0.59400
In40       In  0.43247982  0.41141931  0.88028290     1.36900
C41         C  0.45099679  0.34907131  0.88818904     0.78300
O42         O  0.43373164  0.39733330  0.84191758    -0.60100
O43         O  0.46853130  0.43486195  0.85335821    -0.51100
C44         C  0.36849451  0.43658121  0.87600976     0.71000
O45         O  0.37429702  0.40838016  0.88485714    -0.45900
C46         C  0.45231489  0.44145456  0.92008306     0.75700
O47         O  0.42028730  0.35718246  0.88243073    -0.57800
O48         O  0.46744596  0.44655273  0.90038509    -0.47900
O49         O  0.47192893  0.37294768  0.89016422    -0.54200
C50         C  0.45748017  0.41736351  0.83624315     0.85900
O51         O  0.39553482  0.45170970  0.86935239    -0.56100
O52         O  0.42767624  0.42087948  0.91924798    -0.59400
In53       In  0.05037040  0.40705767  0.36636165     1.36900
C54         C  0.02316852  0.34667126  0.36852744     0.78300
O55         O  0.05303131  0.40766423  0.40608206    -0.60100
O56         O  0.01732678  0.44053916  0.38931649    -0.51100
C57         C  0.11566965  0.42880453  0.36727703     0.71000
O58         O  0.10828597  0.39832939  0.36730679    -0.45900
C59         C  0.03495044  0.42064370  0.32099145     0.75700
O60         O  0.05566843  0.35209428  0.36942900    -0.57800
O61         O  0.02058548  0.43565615  0.33824665    -0.47900
O62         O  0.00475190  0.37243607  0.36691318    -0.54200
C63         C  0.03062808  0.43023135  0.40864854     0.85900
O64         O  0.08961087  0.44794596  0.36683616    -0.56100
O65         O  0.05735633  0.39962275  0.32732863    -0.59400
In66       In  0.42198289  0.55141244  0.37610464     1.36900
C67         C  0.44266900  0.61376374  0.38137771     0.78300
O68         O  0.42029459  0.54714600  0.41608061    -0.60100
O69         O  0.45634735  0.51739967  0.39727802    -0.51100
C70         C  0.35734099  0.52748639  0.37224333     0.71000
O71         O  0.36413269  0.55795768  0.37089665    -0.45900
C72         C  0.44359248  0.53975128  0.33176257     0.75700
O73         O  0.41187913  0.60450319  0.38593891    -0.57800
O74         O  0.45740422  0.52569434  0.34960641    -0.47900
O75         O  0.46277961  0.59090084  0.37471692    -0.54200
C76         C  0.44398739  0.52548348  0.41733031     0.85900
O77         O  0.38381480  0.50943446  0.37550702    -0.56100
O78         O  0.41919921  0.55931893  0.33699298    -0.59400
In79       In  0.92647710  0.54915599  0.60667996     1.36900
C80         C  0.94518872  0.61219933  0.60412454     0.78300
O81         O  0.92508973  0.55809296  0.64584974    -0.60100
O82         O  0.96306566  0.52443943  0.63291923    -0.51100
C83         C  0.86124906  0.52599351  0.60544090     0.71000
O84         O  0.86918283  0.55517618  0.59979486    -0.45900
C85         C  0.95136346  0.52475848  0.56611483     0.75700
O86         O  0.91475153  0.60326726  0.60975485    -0.57800
O87         O  0.95965150  0.51305971  0.58626341    -0.47900
O88         O  0.96576432  0.58872569  0.59933138    -0.54200
C89         C  0.95036909  0.53933532  0.65072318     0.85900
O90         O  0.88701344  0.50872122  0.61194771    -0.56100
O91         O  0.92986389  0.54836814  0.56685062    -0.59400
In92       In  0.55028144  0.41742510  0.61889039     1.36900
C93         C  0.52722598  0.35579013  0.61742873     0.78300
O94         O  0.55903118  0.41200084  0.65822688    -0.60100
O95         O  0.51668536  0.44154612  0.64699360    -0.51100
C96         C  0.61586676  0.43718348  0.61431338     0.71000
O97         O  0.60673941  0.40741674  0.61193052    -0.45900
C98         C  0.52535582  0.44238235  0.57835383     0.75700
O99         O  0.55932665  0.36285534  0.61858744    -0.57800
O100        O  0.52255197  0.45732860  0.59806925    -0.47900
O101        O  0.50705920  0.38046616  0.61678089    -0.54200
C102        C  0.53331866  0.42948292  0.66440468     0.85900
O103        O  0.59137071  0.45678182  0.61946346    -0.56100
O104        O  0.54044142  0.41471756  0.57961448    -0.59400
In105      In  0.41755677  0.05990136  0.63099027     1.36900
C106        C  0.44262760  0.12057058  0.62578707     0.78300
O107        O  0.42115246  0.07385756  0.66952068    -0.60100
O108        O  0.44654452  0.02988489  0.65828791    -0.51100
C109        C  0.35135242  0.03897949  0.63076807     0.71000
O110        O  0.35956327  0.06891197  0.62782194    -0.45900
C111        C  0.44037043  0.03448552  0.59003374     0.75700
O112        O  0.41064307  0.11476254  0.62954569    -0.57800
O113        O  0.45144210  0.02465473  0.61009773    -0.47900
O114        O  0.46158464  0.09513031  0.62432077    -0.54200
C115        C  0.43982847  0.04944385  0.67522261     0.85900
O116        O  0.37704590  0.02023825  0.63469137    -0.56100
O117        O  0.41750873  0.05679860  0.59142849    -0.59400
In118      In  0.04776511  0.91111391  0.61089141     1.36900
C119        C  0.03122864  0.84746615  0.60512908     0.78300
O120        O  0.04663724  0.89822956  0.64967950    -0.60100
O121        O  0.01694052  0.93983711  0.63853146    -0.51100
C122        C  0.11178538  0.93695913  0.61357647     0.71000
O123        O  0.10611345  0.90758289  0.60703294    -0.45900
C124        C  0.02392339  0.93617613  0.56983423     0.75700
O125        O  0.06233563  0.85736278  0.60713959    -0.57800
O126        O  0.00691060  0.93833898  0.58909785    -0.47900
O127        O  0.00879806  0.87031914  0.60581533    -0.54200
C128        C  0.02621115  0.92127921  0.65556210     0.85900
O129        O  0.08449717  0.95302239  0.61865762    -0.56100
O130        O  0.05268289  0.92141826  0.57193108    -0.48200
In131      In  0.91340450  0.04928101  0.37046366     1.36900
C132        C  0.93787700  0.11072727  0.37277802     0.78300
O133        O  0.91728978  0.04880526  0.41040972    -0.60100
O134        O  0.94403504  0.01149047  0.39119493    -0.51100
C135        C  0.84818023  0.02722756  0.37117247     0.71000
O136        O  0.85531442  0.05763444  0.36955760    -0.45900
C137        C  0.93285544  0.03675402  0.32560358     0.75700
O138        O  0.90640874  0.10370171  0.37731565    -0.57800
O139        O  0.94667000  0.02296667  0.34348399    -0.47900
O140        O  0.95695567  0.08611354  0.36817389    -0.54200
C141        C  0.93607428  0.02316329  0.41137184     0.85900
O142        O  0.87435421  0.00839868  0.37212452    -0.56100
O143        O  0.90785234  0.05575127  0.33088089    -0.59400
In144      In  0.54059331  0.91333982  0.39134915     1.36900
C145        C  0.51677125  0.85194676  0.39470138     0.78300
O146        O  0.55082043  0.92094584  0.43030540    -0.60100
O147        O  0.50422114  0.94087436  0.41567994    -0.51100
C148        C  0.60587409  0.93350848  0.38554695     0.71000
O149        O  0.59783886  0.90331303  0.38724027    -0.45900
C150        C  0.51742615  0.92871355  0.34805304     0.75700
O151        O  0.54886843  0.85884022  0.39647717    -0.57800
O152        O  0.51086801  0.94651111  0.36604957    -0.47900
O153        O  0.49728622  0.87680161  0.39230668    -0.54200
C154        C  0.52320399  0.93710806  0.43391941     0.85900
O155        O  0.58030699  0.95317880  0.38683991    -0.56100
O156        O  0.53589912  0.90366446  0.35260269    -0.59400
In157      In  0.93368224  0.91522684  0.87287792     1.36900
C158        C  0.95305208  0.85165864  0.87243740     0.78300
O159        O  0.92601879  0.91586883  0.83311122    -0.60100
O160        O  0.97255926  0.93676984  0.84670953    -0.51100
C161        C  0.86805320  0.93731681  0.87731208     0.71000
O162        O  0.87735747  0.90863145  0.88350980    -0.45900
C163        C  0.95913182  0.94020419  0.91352461     0.75700
O164        O  0.92188471  0.86065085  0.86894558    -0.57800
O165        O  0.96341184  0.95426562  0.89359187    -0.47900
O166        O  0.97387542  0.87521300  0.87629718    -0.54200
C167        C  0.95490421  0.92938372  0.82842090     0.85900
O168        O  0.89244600  0.95437978  0.86849695    -0.56100
O169        O  0.94179711  0.91378545  0.91253574    -0.59400
In170      In  0.55725692  0.05080042  0.88699338     1.36900
C171        C  0.53515222  0.11301864  0.89082234     0.78300
O172        O  0.56461241  0.05380564  0.84730577    -0.60100
O173        O  0.51844790  0.03125304  0.86027269    -0.51100
C174        C  0.62333271  0.03064795  0.88710514     0.71000
O175        O  0.61471312  0.06027967  0.89104062    -0.45900
C176        C  0.53548542  0.02230537  0.92740415     0.75700
O177        O  0.56716509  0.10548011  0.89108660    -0.57800
O178        O  0.52954086  0.00989558  0.90713786    -0.47900
O179        O  0.51491922  0.08868945  0.88852013    -0.54200
C180        C  0.53593225  0.04022342  0.84227611     0.85900
O181        O  0.59792674  0.01157281  0.88298563    -0.56100
O182        O  0.55228048  0.04908122  0.92671073    -0.59400
In183      In  0.05306241  0.05959411  0.11463092     1.36900
C184        C  0.03372093  0.12239488  0.10981371     0.78300
O185        O  0.05403555  0.05967312  0.07491788    -0.60100
O186        O  0.02322697  0.02316469  0.09183215    -0.51100
C187        C  0.11804550  0.03649614  0.11711116     0.71000
O188        O  0.11090470  0.06696439  0.11802253    -0.45900
C189        C  0.02746245  0.04679463  0.15784628     0.75700
O190        O  0.06509823  0.11311662  0.10864199    -0.57800
O191        O  0.01378415  0.03595860  0.13891910    -0.47900
O192        O  0.01226903  0.09927012  0.11349715    -0.54200
C193        C  0.03423145  0.03510952  0.07238609     0.85900
O194        O  0.09163703  0.01803595  0.11560683    -0.56100
O195        O  0.05473126  0.06366299  0.15449612    -0.59400
In196      In  0.42836462  0.92200891  0.13028306     1.36900
C197        C  0.44611815  0.85778747  0.12747994     0.78300
O198        O  0.42981839  0.92263249  0.09052666    -0.60100
O199        O  0.46679491  0.95209405  0.10901771    -0.51100
C200        C  0.36550446  0.95050448  0.12781123     0.71000
O201        O  0.36974115  0.91975243  0.13070724    -0.45900
C202        C  0.44578376  0.93641480  0.17536306     0.75700
O203        O  0.41542627  0.86812354  0.12400057    -0.57800
O204        O  0.46235378  0.94772112  0.15766452    -0.47900
O205        O  0.46750550  0.88046218  0.13256245    -0.54200
C206        C  0.45508766  0.94252356  0.08909413     0.85900
O207        O  0.39355345  0.96674567  0.12662880    -0.56100
O208        O  0.42030922  0.91830017  0.16961117    -0.59400
C209        C  0.20034088  0.98408689  0.10903829    -0.11200
C210        C  0.22499662  0.00342204  0.12117600     0.11400
C211        C  0.21487022  0.03430849  0.13092428    -0.03000
C212        C  0.17985310  0.04438000  0.12856502    -0.05700
C213        C  0.15451767  0.02395417  0.11792566    -0.16500
C214        C  0.16480243  0.99291343  0.10823876     0.02400
C215        C  0.26107301  0.99014879  0.12361488     0.12400
C216        C  0.24049750  0.05602531  0.14449540     0.63000
H217        H  0.17171125  0.06796391  0.13585252     0.12400
C218        C  0.13870521  0.96859409  0.09771467     0.55100
H219        H  0.20907034  0.96111562  0.10109492     0.08200
C220        C  0.26908729  0.96373184  0.13935088    -0.05600
C221        C  0.30368940  0.95203626  0.14033581    -0.06300
C222        C  0.33029479  0.96581440  0.12622521    -0.15900
C223        C  0.32214504  0.99213131  0.11032343    -0.01500
C224        C  0.28736710  0.00344064  0.10907622    -0.09100
C225        C  0.24132019  0.94795440  0.15510335     0.65200
H226        H  0.31031188  0.93187771  0.15224450     0.10700
C227        C  0.34951836  0.00773335  0.09422809     0.63600
H228        H  0.28028426  0.02288195  0.09669173     0.08000
F229        F  0.11621131  0.95791379  0.11544475    -0.19400
F230        F  0.15492147  0.94091831  0.08823004    -0.15700
F231        F  0.11981413  0.98348189  0.07962562    -0.19100
F232        F  0.26790459  0.06514302  0.12986443    -0.22500
F233        F  0.25342732  0.03883715  0.16393738    -0.24000
F234        F  0.22489577  0.08474603  0.15279463    -0.18000
F235        F  0.33492752  0.03021187  0.07841453    -0.20500
F236        F  0.36612872  0.98349646  0.08097531    -0.21600
F237        F  0.37383111  0.02443637  0.10794765    -0.18800
F238        F  0.25515208  0.92358727  0.16970470    -0.18900
F239        F  0.21577920  0.93337675  0.14120840    -0.22700
F240        F  0.22618024  0.97178602  0.16948923    -0.24400
C241        C  0.51476006  0.96986164  0.03809373    -0.11200
C242        C  0.49058247  0.97207962  0.01933328     0.11400
C243        C  0.45507548  0.96431444  0.02347207    -0.03000
C244        C  0.44480218  0.95521781  0.04663204    -0.05700
C245        C  0.46872444  0.95370511  0.06565492    -0.16500
C246        C  0.50443005  0.96122978  0.06142373     0.02400
C247        C  0.50273845  0.98484577  0.99591016     0.12400
C248        C  0.42823340  0.96546233  0.00347727     0.63000
H249        H  0.41766468  0.94924683  0.05009380     0.12400
C250        C  0.53167292  0.95948132  0.08112082     0.55100
H251        H  0.54183189  0.97569178  0.03431307     0.08200
C252        C  0.50683474  0.01918851  0.99193279    -0.05600
C253        C  0.51720849  0.03002249  0.96920731    -0.06300
C254        C  0.52352168  0.00781927  0.95038498    -0.15900
C255        C  0.51978190  0.97326715  0.95445892    -0.01500
C256        C  0.50964035  0.96239652  0.97737987    -0.09100
C257        C  0.50022676  0.04429266  0.01165792     0.65200
H258        H  0.52034995  0.05629804  0.96592307     0.10700
C259        C  0.52673924  0.94798076  0.93496521     0.63600
H260        H  0.50653998  0.93619001  0.98100402     0.08000
F261        F  0.52414168  0.98248717  0.09866789    -0.19400
F262        F  0.56491872  0.96621982  0.07268338    -0.15700
F263        F  0.53197515  0.92806450  0.09095999    -0.19100
F264        F  0.43642134  0.94197045  0.98642839    -0.22500
F265        F  0.42797280  0.99641250  0.99293570    -0.24000
F266        F  0.39481722  0.95898169  0.01171226    -0.18000
F267        F  0.52580271  0.91588286  0.94363340    -0.20500
F268        F  0.55944635  0.95314919  0.92513126    -0.21600
F269        F  0.50155812  0.95082169  0.91736197    -0.18800
F270        F  0.50374686  0.07650169  0.00357657    -0.18900
F271        F  0.52391710  0.03960249  0.02998437    -0.22700
F272        F  0.46672425  0.04067201  0.02050506    -0.24400
C273        C  0.99928494  0.94843060  0.97551619    -0.11200
C274        C  0.99243317  0.98180381  0.98052715     0.11400
C275        C  0.97780209  0.00229831  0.96258197    -0.03000
C276        C  0.96719738  0.98774737  0.94089510    -0.05700
C277        C  0.97241648  0.95394734  0.93632420    -0.16500
C278        C  0.99015814  0.93420854  0.95342374     0.02400
C279        C  0.00259467  0.99490762  0.00434977     0.12400
C280        C  0.97442313  0.03945394  0.96605077     0.63000
H281        H  0.95477243  0.00269308  0.92726925     0.12400
C282        C  0.00121812  0.89892848  0.94786757     0.55100
H283        H  0.01209779  0.93365962  0.98907322     0.08200
C284        C  0.98146713  0.99057923  0.02487457    -0.05600
C285        C  0.99287510  0.00396813  0.04674887    -0.06300
C286        C  0.02445631  0.02154680  0.04862776    -0.15900
C287        C  0.04589379  0.02524103  0.02802456    -0.01500
C288        C  0.03456164  0.01143985  0.00630742    -0.09100
C289        C  0.94708168  0.97190775  0.02361739     0.65200
H290        H  0.97691548  0.00106268  0.06257816     0.10700
C291        C  0.08088527  0.04303027  0.02873040     0.63600
H292        H  0.05051944  0.01364538  0.99041494     0.08000
F293        F  0.97221758  0.87871404  0.94618634    -0.19400
F294        F  0.02291927  0.88613889  0.96538847    -0.15700
F295        F  0.01930512  0.89827567  0.92647217    -0.19100
F296        F  0.00732419  0.05334072  0.96789065    -0.22500
F297        F  0.95575581  0.04626957  0.98660527    -0.24000
F298        F  0.95748218  0.05440363  0.94704318    -0.18000
F299        F  0.10179795  0.02946808  0.04632819    -0.20500
F300        F  0.07578807  0.07634179  0.03324316    -0.21600
F301        F  0.09868988  0.04039017  0.00729798    -0.18800
F302        F  0.92999162  0.97152132  0.04541638    -0.18900
F303        F  0.95315104  0.93948334  0.01691457    -0.22700
F304        F  0.92525422  0.98668808  0.00706750    -0.24400
C305        C  0.77377381  0.95274715  0.89772426    -0.11200
C306        C  0.76436957  0.97903190  0.88272505     0.11400
C307        C  0.78895195  0.99195411  0.86638017    -0.03000
C308        C  0.82221028  0.97720648  0.86508190    -0.05700
C309        C  0.83175221  0.95036345  0.87975966    -0.16500
C310        C  0.80708940  0.93794454  0.89655806     0.02400
C311        C  0.72810253  0.99191281  0.88405457     0.12400
C312        C  0.78018698  0.02153046  0.85066134     0.63000
H313        H  0.84113572  0.98667327  0.85246244     0.12400
C314        C  0.81566938  0.90972341  0.91352637     0.55100
H315        H  0.75441494  0.94367321  0.91021281     0.08200
C316        C  0.70074238  0.97716554  0.87086632    -0.05600
C317        C  0.66718117  0.99103983  0.87227957    -0.06300
C318        C  0.66002214  0.01874069  0.88663761    -0.15900
C319        C  0.68737377  0.03310520  0.90034972    -0.01500
C320        C  0.72111477  0.01920268  0.89880488    -0.09100
C321        C  0.70680854  0.94639924  0.85578993     0.65200
H322        H  0.64606083  0.98015669  0.86209623     0.10700
C323        C  0.68112633  0.06243749  0.91682217     0.63600
H324        H  0.74251742  0.02966644  0.90895297     0.08000
F325        F  0.82181664  0.88106143  0.90069689    -0.19400
F326        F  0.78855831  0.90335833  0.92924570    -0.15700
F327        F  0.84490082  0.91766283  0.92688833    -0.19100
F328        F  0.77280714  0.04864781  0.86484322    -0.22500
F329        F  0.75144017  0.01472783  0.83655073    -0.24000
F330        F  0.80763470  0.02982637  0.83572617    -0.18000
F331        F  0.71053049  0.07017106  0.93011027    -0.20500
F332        F  0.65436429  0.05528127  0.93261548    -0.21600
F333        F  0.67236958  0.09003813  0.90348255    -0.18800
F334        F  0.67705729  0.93717971  0.84339997    -0.18900
F335        F  0.71643674  0.92037430  0.87040612    -0.22700
F336        F  0.73300981  0.95191551  0.83929790    -0.24400
C337        C  0.46849551  0.96160363  0.29315757    -0.11200
C338        C  0.48524457  0.94355776  0.27503869     0.11400
C339        C  0.51290772  0.92182087  0.28092673    -0.03000
C340        C  0.52269142  0.91863992  0.30491707    -0.05700
C341        C  0.50549556  0.93583096  0.32330446    -0.16500
C342        C  0.47755964  0.95758129  0.31743252     0.02400
C343        C  0.47194307  0.94576941  0.25015950     0.12400
C344        C  0.53206757  0.90184767  0.26198628     0.63000
H345        H  0.54413764  0.90235184  0.30947133     0.12400
C346        C  0.45643970  0.97536999  0.33649049     0.55100
H347        H  0.44749244  0.97817330  0.28810996     0.08200
C348        C  0.44267097  0.92718898  0.24266050    -0.05600
C349        C  0.43465406  0.92608509  0.21821024    -0.06300
C350        C  0.45508303  0.94245520  0.20093758    -0.15900
C351        C  0.48350917  0.96252787  0.20872120    -0.01500
C352        C  0.49105672  0.96405160  0.23337656    -0.09100
C353        C  0.42067448  0.90764360  0.26033688     0.65200
H354        H  0.41266538  0.91134384  0.21237659     0.10700
C355        C  0.50646900  0.98165726  0.19142833     0.63600
H356        H  0.51305395  0.97839361  0.23976295     0.08000
F357        F  0.44292477  0.95256710  0.35245833    -0.19400
F358        F  0.42867722  0.99281399  0.32681975    -0.15700
F359        F  0.47746617  0.99763232  0.34853689    -0.19100
F360        F  0.55057161  0.92297457  0.24727669    -0.22500
F361        F  0.50854116  0.88393106  0.24842770    -0.24000
F362        F  0.55547909  0.87964012  0.27196480    -0.18000
F363        F  0.53128834  0.00055477  0.20318160    -0.20500
F364        F  0.48617075  0.00290558  0.17789489    -0.21600
F365        F  0.52397651  0.95984626  0.17661315    -0.18800
F366        F  0.39373542  0.89078352  0.24919402    -0.18900
F367        F  0.40599322  0.92886659  0.27688624    -0.22700
F368        F  0.44128766  0.88468798  0.27206874    -0.24400
C369        C  0.98794318  0.01669510  0.27029608    -0.11200
C370        C  0.96900777  0.03346774  0.25267903     0.11400
C371        C  0.93675108  0.04844889  0.25841471    -0.03000
C372        C  0.92542716  0.04777064  0.28230614    -0.05700
C373        C  0.94527909  0.03260149  0.30050535    -0.16500
C374        C  0.97692005  0.01609629  0.29427553     0.02400
C375        C  0.98475629  0.03654489  0.22862533     0.12400
C376        C  0.91452305  0.06507090  0.23932747     0.63000
H377        H  0.90105239  0.05970736  0.28696621     0.12400
C378        C  0.99976641  0.99870535  0.31260573     0.55100
H379        H  0.01231198  0.00508146  0.26512036     0.08200
C380        C  0.00837713  0.06236197  0.22318781    -0.05600
C381        C  0.02157481  0.06460877  0.19984759    -0.06300
C382        C  0.01250136  0.04159682  0.18204378    -0.15900
C383        C  0.98992904  0.01484757  0.18789030    -0.01500
C384        C  0.97632126  0.01294893  0.21122753    -0.09100
C385        C  0.01996047  0.08711978  0.24208930     0.65200
H386        H  0.03909204  0.08467358  0.19530498     0.10700
C387        C  0.98060072  0.98810453  0.16991095     0.63600
H388        H  0.95868607  0.99310386  0.21611963     0.08000
F389        F  0.01139754  0.02127286  0.32940000    -0.19400
F390        F  0.02891121  0.98425942  0.30229415    -0.15700
F391        F  0.98091904  0.97387596  0.32370210    -0.19100
F392        F  0.90403833  0.04177058  0.22273037    -0.22500
F393        F  0.93339701  0.08944768  0.22778228    -0.24000
F394        F  0.88493251  0.07965925  0.24889196    -0.18000
F395        F  0.96197061  0.96252031  0.18030791    -0.20500
F396        F  0.01076152  0.97478108  0.16022480    -0.21600
F397        F  0.96018609  0.00140914  0.15192413    -0.18800
F398        F  0.04246264  0.11067622  0.23284762    -0.18900
F399        F  0.03719047  0.07071635  0.26028296    -0.22700
F400        F  0.99140217  0.10347491  0.25152625    -0.24400
C401        C  0.75230075  0.00955695  0.35901183    -0.11200
C402        C  0.74535540  0.98621470  0.37691845     0.11400
C403        C  0.77220680  0.97581766  0.39255375    -0.03000
C404        C  0.80549150  0.98998987  0.39000821    -0.05700
C405        C  0.81228135  0.01419454  0.37260562    -0.16500
C406        C  0.78549999  0.02407381  0.35666390     0.02400
C407        C  0.70946714  0.97319142  0.37903286     0.12400
C408        C  0.76557216  0.95002219  0.41185105     0.63000
H409        H  0.82648354  0.98256949  0.40183510     0.12400
C410        C  0.79211188  0.04915537  0.33698131     0.55100
H411        H  0.73127281  0.01661040  0.34712158     0.08200
C412        C  0.68353056  0.99031995  0.39201038    -0.05600
C413        C  0.65013551  0.97619085  0.39372731    -0.06300
C414        C  0.64219034  0.94558770  0.38305755    -0.15900
C415        C  0.66843590  0.92838877  0.37007497    -0.01500
C416        C  0.70167260  0.94294330  0.36804869    -0.09100
C417        C  0.69097585  0.02369129  0.40352650     0.65200
H418        H  0.62986459  0.98904810  0.40349939     0.10700
C419        C  0.66153800  0.89539549  0.35791194     0.63600
H420        H  0.72219084  0.93066324  0.35808641     0.08000
F421        F  0.79897446  0.07979546  0.34691561    -0.19400
F422        F  0.76356751  0.05246058  0.32196651    -0.15700
F423        F  0.82037309  0.03927324  0.32331340    -0.19100
F424        F  0.75453422  0.92073907  0.40157129    -0.22500
F425        F  0.74009548  0.96103433  0.42743610    -0.24000
F426        F  0.79538004  0.94337014  0.42500626    -0.18000
F427        F  0.69034667  0.88433764  0.34523564    -0.20500
F428        F  0.63398340  0.89857791  0.34208077    -0.21600
F429        F  0.65363775  0.87158184  0.37480069    -0.18800
F430        F  0.66308091  0.03466940  0.41711639    -0.18900
F431        F  0.69749449  0.04692039  0.38596316    -0.22700
F432        F  0.71979113  0.02166793  0.41834030    -0.24400
C433        C  0.98906294  0.90490107  0.71736945    -0.11200
C434        C  0.99424357  0.93551735  0.72857746     0.11400
C435        C  0.00988928  0.96185018  0.71569480    -0.03000
C436        C  0.01904656  0.95666094  0.69154694    -0.05700
C437        C  0.01414565  0.92580775  0.68046888    -0.16500
C438        C  0.99869288  0.89953830  0.69346270     0.02400
C439        C  0.98407105  0.93824912  0.75416869     0.12400
C440        C  0.01714209  0.99504084  0.72745557     0.63000
H441        H  0.03100391  0.97635137  0.68130877     0.12400
C442        C  0.99173363  0.86611555  0.68200399     0.55100
H443        H  0.97768299  0.88499692  0.72771333     0.08200
C444        C  0.94878585  0.94145777  0.76131953    -0.05600
C445        C  0.94064217  0.93956717  0.78582027    -0.06300
C446        C  0.96662143  0.93514608  0.80334400    -0.15900
C447        C  0.00221227  0.93358376  0.79613833    -0.01500
C448        C  0.01012932  0.93441751  0.77154993    -0.09100
C449        C  0.91970621  0.94562467  0.74308147     0.65200
H450        H  0.91361379  0.94078539  0.79143399     0.10700
C451        C  0.03181422  0.93034866  0.81404959     0.63600
H452        H  0.03683538  0.93152885  0.76556438     0.08000
F453        F  0.97243567  0.84562771  0.69678143    -0.19400
F454        F  0.02301996  0.85045255  0.67712249    -0.15700
F455        F  0.97319543  0.87035367  0.66100120    -0.19100
F456        F  0.03944553  0.99084650  0.74663631    -0.22500
F457        F  0.98625639  0.00890266  0.73544064    -0.24000
F458        F  0.03268107  0.01710504  0.71180308    -0.18000
F459        F  0.06405924  0.92793331  0.80296372    -0.20500
F460        F  0.02720578  0.90227746  0.82784312    -0.21600
F461        F  0.03246970  0.95802486  0.82857586    -0.18800
F462        F  0.88824229  0.95361775  0.75383147    -0.18900
F463        F  0.91529316  0.91646173  0.73053716    -0.22700
F464        F  0.92788753  0.97070505  0.72723809    -0.24400
C465        C  0.01921756  0.97257263  0.50691143    -0.11200
C466        C  0.98307064  0.97279944  0.50299323     0.11400
C467        C  0.96029766  0.96043234  0.52079546    -0.03000
C468        C  0.97466234  0.94957092  0.54262277    -0.05700
C469        C  0.01094239  0.94923515  0.54662755    -0.16500
C470        C  0.03375597  0.96069287  0.52836524     0.02400
C471        C  0.97009967  0.98584750  0.47979647     0.12400
C472        C  0.92118667  0.95777346  0.51643204     0.63000
H473        H  0.95763530  0.94026879  0.55652400     0.12400
C474        C  0.07324239  0.96079664  0.53140557     0.55100
H475        H  0.03601877  0.98162645  0.49278720     0.08200
C476        C  0.96304589  0.01987462  0.47641178    -0.05600
C477        C  0.95124930  0.03063458  0.45391914    -0.06300
C478        C  0.94798682  0.00882487  0.43447358    -0.15900
C479        C  0.95569794  0.97468832  0.43778785    -0.01500
C480        C  0.96658177  0.96381691  0.46056871    -0.09100
C481        C  0.96962888  0.04501792  0.49610171     0.65200
H482        H  0.94563674  0.05656714  0.45112930     0.10700
C483        C  0.95161738  0.94954926  0.41777179     0.63600
H484        H  0.97272141  0.93804648  0.46358713     0.08000
F485        F  0.08988544  0.97675949  0.51272972    -0.19400
F486        F  0.08551195  0.92859501  0.53210491    -0.15700
F487        F  0.08220061  0.97698034  0.55231345    -0.19100
F488        F  0.91504712  0.93695090  0.49729752    -0.22500
F489        F  0.90719478  0.98851538  0.51138714    -0.24000
F490        F  0.90379657  0.94514137  0.53610022    -0.18000
F491        F  0.97519931  0.95619604  0.39968989    -0.20500
F492        F  0.91794194  0.95087139  0.40881292    -0.21600
F493        F  0.95772931  0.91753352  0.42556451    -0.18800
F494        F  0.95936730  0.07656456  0.48943522    -0.18900
F495        F  0.00491529  0.04583748  0.50132157    -0.22700
F496        F  0.95143579  0.03663628  0.51651962    -0.24400
C497        C  0.46949519  0.01289441  0.73451699    -0.11200
C498        C  0.48100980  0.04150359  0.74626708     0.11400
C499        C  0.47942252  0.07255575  0.73460130    -0.03000
C500        C  0.46531730  0.07394873  0.71146649    -0.05700
C501        C  0.45374540  0.04534125  0.69963379    -0.16500
C502        C  0.45543773  0.01427714  0.71132450     0.02400
C503        C  0.49433194  0.03822045  0.77097131     0.12400
C504        C  0.49316060  0.10390979  0.74633928     0.63000
H505        H  0.46385485  0.09743366  0.70218064     0.12400
C506        C  0.44079392  0.98311481  0.69996661     0.55100
H507        H  0.47124629  0.98949157  0.74386577     0.08200
C508        C  0.47171238  0.03874615  0.79091047    -0.05600
C509        C  0.48642450  0.03817586  0.81392887    -0.06300
C510        C  0.52279202  0.03684480  0.81744693    -0.15900
C511        C  0.54518857  0.03381834  0.79730559    -0.01500
C512        C  0.53038024  0.03476901  0.77432298    -0.09100
C513        C  0.43227031  0.03981762  0.78777984     0.65200
H514        H  0.46953937  0.03968089  0.82940373     0.10700
C515        C  0.58453956  0.03020277  0.79962002     0.63600
H516        H  0.54697401  0.03377136  0.75867665     0.08000
F517        F  0.44116179  0.95661574  0.71564551    -0.19400
F518        F  0.46044721  0.97448538  0.68021549    -0.15700
F519        F  0.40652821  0.98855722  0.69309827    -0.19100
F520        F  0.52863716  0.10080919  0.75039713    -0.22500
F521        F  0.47644178  0.10929228  0.76786700    -0.24000
F522        F  0.48791291  0.13154425  0.73213495    -0.18000
F523        F  0.59932281  0.01851832  0.77866703    -0.20500
F524        F  0.59286439  0.00796503  0.81754155    -0.21600
F525        F  0.59911239  0.06069790  0.80472608    -0.18800
F526        F  0.41508582  0.04207521  0.80946652    -0.18900
F527        F  0.42120581  0.01126675  0.77647294    -0.22700
F528        F  0.42269939  0.06685471  0.77411979    -0.24400
C529        C  0.52540360  0.97934790  0.49468892    -0.11200
C530        C  0.49025008  0.97672217  0.50148392     0.11400
C531        C  0.46608919  0.96072981  0.48615688    -0.03000
C532        C  0.47809085  0.94824391  0.46422352    -0.05700
C533        C  0.51335163  0.95029777  0.45759530    -0.16500
C534        C  0.53771084  0.96561247  0.47317731     0.02400
C535        C  0.47922739  0.99174666  0.52449195     0.12400
C536        C  0.42789030  0.95652365  0.49298544     0.63000
H537        H  0.45995317  0.93641801  0.45206358     0.12400
C538        C  0.57631011  0.96803140  0.46704159     0.55100
H539        H  0.54320517  0.99214816  0.50654568     0.08200
C540        C  0.48704353  0.97709840  0.54681016    -0.05600
C541        C  0.47477912  0.99253888  0.56773130    -0.06300
C542        C  0.45331749  0.02085792  0.56692902    -0.15900
C543        C  0.44478849  0.03490174  0.54430573    -0.01500
C544        C  0.45945560  0.02085859  0.52363642    -0.09100
C545        C  0.50704091  0.94465146  0.54845244     0.65200
H546        H  0.48107674  0.98186233  0.58492846     0.10700
C547        C  0.41938401  0.06363193  0.54146726     0.63600
H548        H  0.45443911  0.03174439  0.50630670     0.08000
F549        F  0.59102221  0.93674712  0.46705304    -0.19400
F550        F  0.59442908  0.98716003  0.48339561    -0.15700
F551        F  0.58047009  0.98226078  0.44474616    -0.19100
F552        F  0.41149344  0.98697874  0.49374286    -0.22500
F553        F  0.42541065  0.94161003  0.51514907    -0.24000
F554        F  0.41008239  0.93696662  0.47673691    -0.18000
F555        F  0.41512593  0.07277368  0.51781846    -0.20500
F556        F  0.43138038  0.09103617  0.55369211    -0.21600
F557        F  0.38691748  0.05453424  0.55012281    -0.18800
F558        F  0.50908890  0.93320945  0.57171828    -0.18900
F559        F  0.54070948  0.94872808  0.54005882    -0.22700
F560        F  0.49036916  0.92074994  0.53494279    -0.24400
C561        C  0.20903151  0.95618270  0.60597171    -0.11200
C562        C  0.21342048  0.98100608  0.62317792     0.11400
C563        C  0.18433206  0.99237346  0.63637694    -0.03000
C564        C  0.15169612  0.97728972  0.63255758    -0.05700
C565        C  0.14730062  0.95152811  0.61590764    -0.16500
C566        C  0.17639907  0.94105861  0.60203388     0.02400
C567        C  0.24860608  0.99583196  0.62605662     0.12400
C568        C  0.18773398  0.02062569  0.65415598     0.63000
H569        H  0.12926060  0.98551680  0.64271734     0.12400
C570        C  0.17328432  0.91461854  0.58285811     0.55100
H571        H  0.23165207  0.94864481  0.59570854     0.08200
C572        C  0.27509337  0.98060401  0.63984129    -0.05600
C573        C  0.30790659  0.99612648  0.64132578    -0.06300
C574        C  0.31499749  0.02610405  0.62947065    -0.15900
C575        C  0.28826081  0.04119740  0.61557184    -0.01500
C576        C  0.25553019  0.02550350  0.61405461    -0.09100
C577        C  0.26876354  0.94814665  0.65289615     0.65200
H578        H  0.32847796  0.98476148  0.65176570     0.10700
C579        C  0.29403939  0.07316985  0.60185787     0.63600
H580        H  0.23482596  0.03624395  0.60340223     0.08000
F581        F  0.16697709  0.88423359  0.59336957    -0.19400
F582        F  0.20355833  0.91188594  0.56945261    -0.15700
F583        F  0.14629045  0.92237109  0.56739282    -0.19100
F584        F  0.19608113  0.04950866  0.64221445    -0.22500
F585        F  0.21370858  0.01370709  0.67057762    -0.24000
F586        F  0.15698899  0.02593224  0.66659356    -0.18000
F587        F  0.26559428  0.08123535  0.58769848    -0.20500
F588        F  0.32275545  0.07004132  0.58703532    -0.21600
F589        F  0.29933237  0.09890184  0.61773620    -0.18800
F590        F  0.29802503  0.93784444  0.66542123    -0.18900
F591        F  0.26024063  0.92357896  0.63674220    -0.22700
F592        F  0.24166105  0.95181734  0.66898395    -0.24400
C593        C  0.47418252  0.27715648  0.60802672    -0.11200
C594        C  0.49263561  0.25512944  0.62265569     0.11400
C595        C  0.52347712  0.26553749  0.63432120    -0.03000
C596        C  0.53379429  0.29869780  0.63194286    -0.05700
C597        C  0.51461388  0.32126172  0.61804924    -0.16500
C598        C  0.48459756  0.31029078  0.60542075     0.02400
C599        C  0.47990463  0.22071255  0.62419320     0.12400
C600        C  0.54550053  0.24169517  0.64898849     0.63000
H601        H  0.55693018  0.30737408  0.64114650     0.12400
C602        C  0.46442722  0.33271262  0.58852167     0.55100
H603        H  0.45139225  0.26799256  0.59864570     0.08200
C604        C  0.45170449  0.21165443  0.63912129    -0.05600
C605        C  0.44050063  0.17858178  0.63895585    -0.06300
C606        C  0.45657055  0.15464498  0.62445000    -0.15900
C607        C  0.48469490  0.16396385  0.60932123    -0.01500
C608        C  0.49552813  0.19715740  0.60932215    -0.09100
C609        C  0.43363722  0.23672192  0.65516931     0.65200
H610        H  0.41917629  0.17103647  0.65042988     0.10700
C611        C  0.50262349  0.13962310  0.59269437     0.63600
H612        H  0.51649561  0.20517533  0.59768244     0.08000
F613        F  0.44831728  0.35782237  0.60116048    -0.19400
F614        F  0.43869105  0.31563377  0.57624765    -0.15700
F615        F  0.48702659  0.34617734  0.57187679    -0.19100
F616        F  0.55841951  0.21690140  0.63445071    -0.22500
F617        F  0.52547199  0.22765191  0.66684694    -0.24000
F618        F  0.57366789  0.25738703  0.65959283    -0.18000
F619        F  0.52649257  0.15508439  0.57781710    -0.20500
F620        F  0.47803414  0.12432427  0.57845746    -0.21600
F621        F  0.52042401  0.11607335  0.60584297    -0.18800
F622        F  0.40695540  0.22246952  0.66832013    -0.18900
F623        F  0.41927994  0.26181627  0.64155281    -0.22700
F624        F  0.45748667  0.25015013  0.67096759    -0.24400
C625        C  0.02672937  0.75334739  0.61086406    -0.11200
C626        C  0.99542513  0.74679498  0.59876965     0.11400
C627        C  0.97639592  0.77308487  0.58833178    -0.03000
C628        C  0.98994501  0.80536091  0.58998195    -0.05700
C629        C  0.02116047  0.81216995  0.60230381    -0.16500
C630        C  0.03999043  0.78570889  0.61298460     0.02400
C631        C  0.98196055  0.71239270  0.59913678     0.12400
C632        C  0.94133883  0.76725623  0.57628822     0.63000
H633        H  0.97564870  0.82578538  0.58215688     0.12400
C634        C  0.07275789  0.79152885  0.62770808     0.55100
H635        H  0.04024798  0.73280696  0.61914625     0.08200
C636        C  0.99445940  0.68773452  0.58333990    -0.05600
C637        C  0.98108802  0.65552001  0.58540917    -0.06300
C638        C  0.95629953  0.64717437  0.60284441    -0.15900
C639        C  0.94447728  0.67170586  0.61910301    -0.01500
C640        C  0.95759888  0.70406610  0.61683871    -0.09100
C641        C  0.02188400  0.69531388  0.56452232     0.65200
H642        H  0.99008861  0.63631341  0.57330588     0.10700
C643        C  0.91956092  0.66363434  0.63941722     0.63600
H644        H  0.94925694  0.72324689  0.62909159     0.08000
F645        F  0.09921650  0.80343438  0.61326557    -0.19400
F646        F  0.08460350  0.76274232  0.63843248    -0.15700
F647        F  0.06577945  0.81416862  0.64560117    -0.19100
F648        F  0.91721924  0.75674005  0.59301741    -0.22500
F649        F  0.94453167  0.74338946  0.55874300    -0.24000
F650        F  0.92853464  0.79578679  0.56572568    -0.18000
F651        F  0.91490493  0.69031033  0.65461665    -0.20500
F652        F  0.93277128  0.63766611  0.65275941    -0.21600
F653        F  0.88719733  0.65503431  0.63037518    -0.18800
F654        F  0.03033223  0.66757544  0.55116868    -0.18900
F655        F  0.05211984  0.70650055  0.57531790    -0.22700
F656        F  0.00958962  0.71934550  0.54909898    -0.24400
C657        C  0.76353782  0.51390210  0.59357019    -0.11200
C658        C  0.75747411  0.48463681  0.60628742     0.11400
C659        C  0.78554684  0.46794955  0.61736479    -0.03000
C660        C  0.81875118  0.48273200  0.61693384    -0.05700
C661        C  0.82497688  0.51274813  0.60488023    -0.16500
C662        C  0.79698319  0.52826852  0.59236744     0.02400
C663        C  0.72105979  0.47271650  0.60839700     0.12400
C664        C  0.78052740  0.43433794  0.62908680     0.63000
H665        H  0.84023121  0.47070643  0.62602544     0.12400
C666        C  0.80204172  0.55920939  0.57728995     0.55100
H667        H  0.74151832  0.52561036  0.58482325     0.08200
C668        C  0.69870013  0.48473430  0.62653622    -0.05600
C669        C  0.66442291  0.47250425  0.62772451    -0.06300
C670        C  0.65230322  0.44846423  0.61165955    -0.15900
C671        C  0.67456577  0.43672868  0.59327175    -0.01500
C672        C  0.70871591  0.44948182  0.59180799    -0.09100
C673        C  0.71108764  0.51039253  0.64451602     0.65200
H674        H  0.64685235  0.48134104  0.64147598     0.10700
C675        C  0.66211308  0.41151040  0.57501176     0.63600
H676        H  0.72627758  0.44114376  0.57789207     0.08000
F677        F  0.81138576  0.58561014  0.59165056    -0.19400
F678        F  0.77183673  0.56801162  0.56522184    -0.15700
F679        F  0.82778666  0.55361059  0.56041978    -0.19100
F680        F  0.76843190  0.41197984  0.61233199    -0.22500
F681        F  0.75657674  0.43647098  0.64748344    -0.24000
F682        F  0.81147113  0.42208704  0.63836904    -0.18000
F683        F  0.68652501  0.40641222  0.55715522    -0.20500
F684        F  0.63153242  0.42243243  0.56439501    -0.21600
F685        F  0.65614340  0.38145244  0.58610496    -0.18800
F686        F  0.68539544  0.51808940  0.66099781    -0.18900
F687        F  0.72033867  0.53919763  0.63279916    -0.22700
F688        F  0.73974588  0.49859437  0.65689786    -0.24400
C689        C  0.48805027  0.69662093  0.37195783    -0.11200
C690        C  0.47353452  0.71517552  0.39056135     0.11400
C691        C  0.44812664  0.70091794  0.40572981    -0.03000
C692        C  0.43881159  0.66764215  0.40208146    -0.05700
C693        C  0.45412399  0.64857157  0.38387968    -0.16500
C694        C  0.47899845  0.66332401  0.36833151     0.02400
C695        C  0.48451513  0.75007965  0.39293282     0.12400
C696        C  0.43124410  0.72073123  0.42573583     0.63000
H697        H  0.41966615  0.65611272  0.41363312     0.12400
C698        C  0.49577340  0.64451523  0.34780434     0.55100
H699        H  0.50683160  0.70856204  0.36035004     0.08200
C700        C  0.51679549  0.75909119  0.40328918    -0.05600
C701        C  0.52589378  0.79275541  0.40393150    -0.06300
C702        C  0.50357670  0.81742566  0.39484724    -0.15900
C703        C  0.47060305  0.80818990  0.38509747    -0.01500
C704        C  0.46224592  0.77441274  0.38379825    -0.09100
C705        C  0.54189493  0.73323151  0.41301540     0.65200
H706        H  0.55090033  0.79997705  0.41129804     0.10700
C707        C  0.44421621  0.83326311  0.37579047     0.63600
H708        H  0.43802873  0.76649108  0.37560925     0.08000
F709        F  0.51857812  0.62103693  0.35676876    -0.19400
F710        F  0.51452144  0.66529123  0.33287428    -0.15700
F711        F  0.47039129  0.62915278  0.33414450    -0.19100
F712        F  0.41305431  0.74731148  0.41639485    -0.22500
F713        F  0.45666789  0.73235343  0.44114580    -0.24000
F714        F  0.40793741  0.70183265  0.43881056    -0.18000
F715        F  0.41416069  0.81821250  0.36731457    -0.20500
F716        F  0.45862194  0.85125720  0.35722217    -0.21600
F717        F  0.43435955  0.85436424  0.39404205    -0.18800
F718        F  0.56918009  0.74753678  0.42554585    -0.18900
F719        F  0.55584286  0.71517295  0.39433982    -0.22700
F720        F  0.52460091  0.71199670  0.42834886    -0.24400
C721        C  0.49611476  0.48088637  0.46629080    -0.11200
C722        C  0.47538748  0.48749388  0.48633534     0.11400
C723        C  0.44398093  0.50554689  0.48367528    -0.03000
C724        C  0.43481886  0.51730130  0.46084134    -0.05700
C725        C  0.45564332  0.51101511  0.44057307    -0.16500
C726        C  0.48654214  0.49170232  0.44326474     0.02400
C727        C  0.48758184  0.47548351  0.51001171     0.12400
C728        C  0.42017874  0.51213732  0.50488875     0.63000
H729        H  0.41109561  0.53153302  0.45871230     0.12400
C730        C  0.50970898  0.48256224  0.42223589     0.55100
H731        H  0.52003452  0.46706951  0.46893996     0.08200
C732        C  0.48342865  0.44215106  0.51725228    -0.05600
C733        C  0.49539616  0.43273135  0.54001008    -0.06300
C734        C  0.51173040  0.45535018  0.55543598    -0.15900
C735        C  0.51668192  0.48854143  0.54793551    -0.01500
C736        C  0.50427755  0.49805302  0.52525655    -0.09100
C737        C  0.46762759  0.41634152  0.50074327     0.65200
H738        H  0.49260067  0.40731048  0.54581915     0.10700
C739        C  0.53643142  0.51334864  0.56319332     0.63600
H740        H  0.50777115  0.52323082  0.51905926     0.08000
F741        F  0.53803681  0.46349437  0.42912961    -0.19400
F742        F  0.52242098  0.51100203  0.41156766    -0.15700
F743        F  0.49079613  0.46430534  0.40580932    -0.19100
F744        F  0.43714052  0.53192574  0.52134382    -0.22500
F745        F  0.41112793  0.48257029  0.51568483    -0.24000
F746        F  0.38965964  0.52801780  0.49815684    -0.18000
F747        F  0.54079161  0.54332001  0.55156817    -0.20500
F748        F  0.56922689  0.50099365  0.56860840    -0.21600
F749        F  0.51829565  0.51931775  0.58409802    -0.18800
F750        F  0.46128036  0.38682841  0.51254858    -0.18900
F751        F  0.49047197  0.41004158  0.48217320    -0.22700
F752        F  0.43625427  0.42747326  0.49149295    -0.24400
C753        C  0.96400439  0.27083881  0.36215264    -0.11200
C754        C  0.98495568  0.24658826  0.37292737     0.11400
C755        C  0.01842983  0.25498987  0.38163127    -0.03000
C756        C  0.02941787  0.28806039  0.38008425    -0.05700
C757        C  0.00840419  0.31271404  0.36969158    -0.16500
C758        C  0.97511724  0.30398188  0.36024425     0.02400
C759        C  0.97218487  0.21198860  0.37337721     0.12400
C760        C  0.04283630  0.22891961  0.39189833     0.63000
H761        H  0.05490230  0.29485024  0.38687046     0.12400
C762        C  0.95166770  0.32892833  0.34767098     0.55100
H763        H  0.93884577  0.26340405  0.35512426     0.08200
C764        C  0.94998667  0.19992850  0.39161156    -0.05600
C765        C  0.93975092  0.16647915  0.39091565    -0.06300
C766        C  0.95101889  0.14515433  0.37266290    -0.15900
C767        C  0.97272043  0.15756636  0.35414684    -0.01500
C768        C  0.98277047  0.19099595  0.35485530    -0.09100
C769        C  0.93707855  0.22232505  0.41155857     0.65200
H770        H  0.92290001  0.15661350  0.40472209     0.10700
C771        C  0.98427994  0.13618571  0.33325004     0.63600
H772        H  0.99929515  0.20115224  0.34096883     0.08000
F773        F  0.93984137  0.35218777  0.36388937    -0.19400
F774        F  0.92271590  0.31400609  0.33746260    -0.15700
F775        F  0.96996551  0.34457612  0.32959685    -0.19100
F776        F  0.05210295  0.20673010  0.37420923    -0.22500
F777        F  0.02657406  0.21195044  0.41020215    -0.24000
F778        F  0.07313494  0.24277742  0.40095491    -0.18000
F779        F  0.00194692  0.15440261  0.31612434    -0.20500
F780        F  0.95542000  0.12206763  0.32242090    -0.21600
F781        F  0.00647685  0.11151756  0.34118970    -0.18800
F782        F  0.91522092  0.20570038  0.42718170    -0.18900
F783        F  0.91864779  0.24862577  0.40202248    -0.22700
F784        F  0.96503812  0.23444738  0.42448926    -0.24400
C785        C  0.03336069  0.46067770  0.47313727    -0.11200
C786        C  0.99831109  0.46922734  0.47671891     0.11400
C787        C  0.97402195  0.46582297  0.45782525    -0.03000
C788        C  0.98571098  0.45304761  0.43585413    -0.05700
C789        C  0.02062366  0.44346027  0.43239552    -0.16500
C790        C  0.04505073  0.44739647  0.45133911     0.02400
C791        C  0.98805286  0.48285632  0.50027731     0.12400
C792        C  0.93601156  0.47583158  0.46089553     0.63000
H793        H  0.96749978  0.45016429  0.42118960     0.12400
C794        C  0.08343453  0.43850247  0.44857601     0.55100
H795        H  0.05145915  0.46426946  0.48778118     0.08200
C796        C  0.98055803  0.46223967  0.52006737    -0.05600
C797        C  0.96895755  0.47701360  0.54138142    -0.06300
C798        C  0.96533300  0.51145505  0.54346349    -0.15900
C799        C  0.97553185  0.53216136  0.52422346    -0.01500
C800        C  0.98654206  0.51733381  0.50279524    -0.09100
C801        C  0.98464282  0.42488210  0.51864702     0.65200
H802        H  0.96197854  0.46169139  0.55651214     0.10700
C803        C  0.97604225  0.56963681  0.52645955     0.63600
H804        H  0.99366682  0.53255096  0.48763494     0.08000
F805        F  0.10300398  0.44825843  0.46815335    -0.19400
F806        F  0.09704838  0.45406748  0.42865735    -0.15700
F807        F  0.08703839  0.40460229  0.44620617    -0.19100
F808        F  0.93383084  0.50941202  0.46539298    -0.22500
F809        F  0.92136760  0.45874403  0.47979215    -0.24000
F810        F  0.91645971  0.46911759  0.44066674    -0.18000
F811        F  0.99358138  0.58431669  0.50760085    -0.20500
F812        F  0.99292549  0.57871346  0.54730308    -0.21600
F813        F  0.94225143  0.58173758  0.52673953    -0.18800
F814        F  0.97672104  0.40969966  0.54014452    -0.18900
F815        F  0.01875199  0.41689522  0.51294145    -0.22700
F816        F  0.96263740  0.41222931  0.50134416    -0.24400
C817        C  0.26075971  0.51291358  0.35817589    -0.11200
C818        C  0.25480907  0.48365244  0.37092314     0.11400
C819        C  0.28241115  0.46857019  0.38368370    -0.03000
C820        C  0.31543200  0.48374022  0.38337740    -0.05700
C821        C  0.32146316  0.51357045  0.37107694    -0.16500
C822        C  0.29357291  0.52858856  0.35823405     0.02400
C823        C  0.21910813  0.46957592  0.37057390     0.12400
C824        C  0.27725458  0.43630309  0.39718773     0.63000
H825        H  0.33687957  0.47235033  0.39294359     0.12400
C826        C  0.29804219  0.56060972  0.34434819     0.55100
H827        H  0.23911794  0.52356998  0.34839127     0.08200
C828        C  0.19220853  0.48213413  0.38535691    -0.05600
C829        C  0.15886109  0.46773636  0.38389090    -0.06300
C830        C  0.15181371  0.44154840  0.36813397    -0.15900
C831        C  0.17856184  0.42963051  0.35289242    -0.01500
C832        C  0.21200692  0.44387936  0.35449595    -0.09100
C833        C  0.19858061  0.51095950  0.40225986     0.65200
H834        H  0.13785467  0.47707157  0.39491540     0.10700
C835        C  0.17157364  0.40300480  0.33438004     0.63600
H836        H  0.23294753  0.43525137  0.34309051     0.08000
F837        F  0.30557807  0.58623020  0.35987140    -0.19400
F838        F  0.26803267  0.56914696  0.33194737    -0.15700
F839        F  0.32479773  0.55722027  0.32795855    -0.19100
F840        F  0.27301084  0.41070045  0.38107297    -0.22500
F841        F  0.24802944  0.43813913  0.41164129    -0.24000
F842        F  0.30561829  0.42901844  0.41163047    -0.18000
F843        F  0.19986454  0.39846301  0.31931774    -0.20500
F844        F  0.14314540  0.41184070  0.32048959    -0.21600
F845        F  0.16479492  0.37325956  0.34565738    -0.18800
F846        F  0.16974232  0.51738578  0.41644911    -0.18900
F847        F  0.20586419  0.53919766  0.38924151    -0.22700
F848        F  0.22650371  0.50409205  0.41713920    -0.24400
C849        C  0.47964816  0.18953734  0.90305585    -0.11200
C850        C  0.49960100  0.21401489  0.89182551     0.11400
C851        C  0.53236775  0.20581705  0.88171892    -0.03000
C852        C  0.54337390  0.17258549  0.88227731    -0.05700
C853        C  0.52250772  0.14762868  0.89237494    -0.16500
C854        C  0.49033350  0.15625186  0.90339650     0.02400
C855        C  0.48548389  0.24817118  0.89124477     0.12400
C856        C  0.55552725  0.23204630  0.87044191     0.63000
H857        H  0.56817347  0.16573654  0.87439531     0.12400
C858        C  0.46760791  0.13083462  0.91598426     0.55100
H859        H  0.45517173  0.19677554  0.91121885     0.08200
C860        C  0.46015809  0.25817784  0.87425319    -0.05600
C861        C  0.44927841  0.29140028  0.87412684    -0.06300
C862        C  0.46196454  0.31423418  0.89088051    -0.15900
C863        C  0.48489252  0.30344668  0.90918426    -0.01500
C864        C  0.49677595  0.27049405  0.90877403    -0.09100
C865        C  0.44454274  0.23393235  0.85645598     0.65200
H866        H  0.43107750  0.29997053  0.86067176     0.10700
C867        C  0.49516444  0.32592264  0.92976081     0.63600
H868        H  0.51492504  0.26175958  0.92220707     0.08000
F869        F  0.45324924  0.10937070  0.89944853    -0.19400
F870        F  0.44036800  0.14554738  0.92832258    -0.15700
F871        F  0.48747414  0.11319421  0.93225985    -0.19100
F872        F  0.56689470  0.25385570  0.88780853    -0.22500
F873        F  0.53708156  0.24936365  0.85326240    -0.24000
F874        F  0.58462546  0.21830454  0.85958346    -0.18000
F875        F  0.51340172  0.30893555  0.94726750    -0.20500
F876        F  0.46538678  0.33902118  0.94012729    -0.21600
F877        F  0.51616832  0.35136860  0.92168214    -0.18800
F878        F  0.42049288  0.24905698  0.84152148    -0.18900
F879        F  0.42745713  0.20886244  0.86851545    -0.22700
F880        F  0.47061094  0.22037127  0.84245041    -0.24400
C881        C  0.48253008  0.40015813  0.77150087    -0.11200
C882        C  0.49463787  0.43134677  0.76434721     0.11400
C883        C  0.49390250  0.45809805  0.78063123    -0.03000
C884        C  0.48239488  0.45218531  0.80412967    -0.05700
C885        C  0.47055472  0.42083567  0.81143632    -0.16500
C886        C  0.47078633  0.39415747  0.79488341     0.02400
C887        C  0.50691330  0.43486199  0.73931849     0.12400
C888        C  0.50441432  0.49279753  0.77307881     0.63000
H889        H  0.48163330  0.47234394  0.81684838     0.12400
C890        C  0.45980099  0.35925128  0.80179776     0.55100
H891        H  0.48259600  0.38036467  0.75844884     0.08200
C892        C  0.53970728  0.42247744  0.73185319    -0.05600
C893        C  0.54744730  0.42221001  0.70730111    -0.06300
C894        C  0.52375549  0.43416219  0.69005071    -0.15900
C895        C  0.49165482  0.44830961  0.69782691    -0.01500
C896        C  0.48360115  0.44771394  0.72238134    -0.09100
C897        C  0.56647110  0.40962330  0.74971920     0.65200
H898        H  0.57214839  0.41211660  0.70139051     0.10700
C899        C  0.46547470  0.46334160  0.68055444     0.63600
H900        H  0.45849249  0.45650692  0.72858790     0.08000
F901        F  0.46633547  0.33669224  0.78372183    -0.19400
F902        F  0.42436210  0.35841979  0.80653757    -0.15700
F903        F  0.47820237  0.34911170  0.82178954    -0.19100
F904        F  0.48207536  0.50402484  0.75544726    -0.22500
F905        F  0.53818698  0.49268295  0.76436295    -0.24000
F906        F  0.50288735  0.51492781  0.79193039    -0.18000
F907        F  0.43691294  0.47674986  0.69224906    -0.20500
F908        F  0.45334955  0.43924011  0.66509326    -0.21600
F909        F  0.48118095  0.48855993  0.66774348    -0.18800
F910        F  0.59678271  0.39901034  0.73860183    -0.18900
F911        F  0.55303603  0.38316933  0.76236834    -0.22700
F912        F  0.57528651  0.43453013  0.76552811    -0.24400
C913        C  0.96443490  0.75962142  0.85846031    -0.11200
C914        C  0.99206986  0.75153695  0.87380911     0.11400
C915        C  0.00728471  0.77636143  0.88825295    -0.03000
C916        C  0.99322316  0.80851390  0.88744349    -0.05700
C917        C  0.96488383  0.81661045  0.87253643    -0.16500
C918        C  0.95031199  0.79178762  0.85756877     0.02400
C919        C  0.00517851  0.71695155  0.87369597     0.12400
C920        C  0.03849544  0.76898975  0.90417896     0.63000
H921        H  0.00444895  0.82776564  0.89850660     0.12400
C922        C  0.92065930  0.79905713  0.84032198     0.55100
H923        H  0.95390326  0.74024232  0.84718028     0.08200
C924        C  0.98768502  0.69120069  0.88595167    -0.05600
C925        C  0.00106734  0.65886174  0.88434027    -0.06300
C926        C  0.03108230  0.65160780  0.87087481    -0.15900
C927        C  0.04864604  0.67751606  0.85865122    -0.01500
C928        C  0.03502329  0.70981211  0.86014790    -0.09100
C929        C  0.95472416  0.69775897  0.90031919     0.65200
H930        H  0.98790922  0.63880521  0.89346997     0.10700
C931        C  0.08089988  0.67122370  0.84348796     0.63600
H932        H  0.04745257  0.72991139  0.85062136     0.08000
F933        F  0.89046981  0.80574893  0.85298900    -0.19400
F934        F  0.91401026  0.77249586  0.82534962    -0.15700
F935        F  0.92905960  0.82595339  0.82615162    -0.19100
F936        F  0.06686762  0.76015702  0.89030093    -0.22500
F937        F  0.03069384  0.74330132  0.91959175    -0.24000
F938        F  0.04798754  0.79617981  0.91775685    -0.18000
F939        F  0.09135076  0.69932970  0.83127680    -0.20500
F940        F  0.07398125  0.64685268  0.82678462    -0.21600
F941        F  0.10831917  0.66134887  0.85792965    -0.18800
F942        F  0.94297626  0.66955632  0.91185010    -0.18900
F943        F  0.92841683  0.70861095  0.88532454    -0.22700
F944        F  0.96108916  0.72167326  0.91743103    -0.24400
C945        C  0.03436589  0.54352146  0.75199905    -0.11200
C946        C  0.99922460  0.53558204  0.74831843     0.11400
C947        C  0.97759193  0.52778931  0.76799140    -0.03000
C948        C  0.99183387  0.52982940  0.79113723    -0.05700
C949        C  0.02664038  0.53972232  0.79504726    -0.16500
C950        C  0.04859091  0.54616292  0.77504833     0.02400
C951        C  0.98603504  0.53652405  0.72346761     0.12400
C952        C  0.93967751  0.51761827  0.76453631     0.63000
H953        H  0.97545744  0.52463753  0.80643422     0.12400
C954        C  0.08682873  0.55577386  0.77763188     0.55100
H955        H  0.05029974  0.54876559  0.73647641     0.08200
C956        C  0.97465458  0.56647268  0.71295099    -0.05600
C957        C  0.96316478  0.56587642  0.68917439    -0.06300
C958        C  0.96423809  0.53689401  0.67534664    -0.15900
C959        C  0.97735433  0.50722968  0.68551732    -0.01500
C960        C  0.98780047  0.50755134  0.70967056    -0.09100
C961        C  0.97561159  0.59911784  0.72651356     0.65200
H962        H  0.95380715  0.58846557  0.68095917     0.10700
C963        C  0.97961704  0.47535692  0.67124092     0.63600
H964        H  0.99777756  0.48527399  0.71798894     0.08000
F965        F  0.10369578  0.55713167  0.75578000    -0.19400
F966        F  0.10406432  0.53268381  0.79158952    -0.15700
F967        F  0.08944097  0.58677116  0.78796437    -0.19100
F968        F  0.93794111  0.49004035  0.74998137    -0.22500
F969        F  0.92100044  0.54301834  0.75403813    -0.24000
F970        F  0.92370060  0.50992699  0.78601335    -0.18000
F971        F  0.99049134  0.44897256  0.68517811    -0.20500
F972        F  0.00335187  0.47904760  0.65281176    -0.21600
F973        F  0.94714360  0.46766610  0.66191768    -0.18800
F974        F  0.96328490  0.62515572  0.71280219    -0.18900
F975        F  0.00957681  0.60635234  0.73305930    -0.22700
F976        F  0.95526967  0.59722600  0.74682523    -0.24400
C977        C  0.28824502  0.48582562  0.85660004    -0.11200
C978        C  0.26468960  0.47732016  0.87473609     0.11400
C979        C  0.27456549  0.45430550  0.89252460    -0.03000
C980        C  0.30891838  0.44199250  0.89236799    -0.05700
C981        C  0.33292767  0.45094182  0.87451195    -0.16500
C982        C  0.32220195  0.47249648  0.85584195     0.02400
C983        C  0.22868151  0.49045971  0.87312628     0.12400
C984        C  0.24872984  0.44223427  0.91123429     0.63000
H985        H  0.31727816  0.42508713  0.90622225     0.12400
C986        C  0.34537953  0.47985734  0.83444277     0.55100
H987        H  0.27940891  0.50249512  0.84272595     0.08200
C988        C  0.21923104  0.52155277  0.88264950    -0.05600
C989        C  0.18455444  0.53232667  0.87994944    -0.06300
C990        C  0.15929435  0.51315282  0.86798603    -0.15900
C991        C  0.16901826  0.48177028  0.85849320    -0.01500
C992        C  0.20388254  0.47133276  0.86101142    -0.09100
C993        C  0.24578298  0.54357009  0.89510684     0.65200
H994        H  0.17696782  0.55607792  0.88720524     0.10700
C995        C  0.14345840  0.45933814  0.84543800     0.63600
H996        H  0.21227011  0.44787603  0.85363658     0.08000
F997        F  0.37403046  0.49828605  0.84140740    -0.19400
F998        F  0.32780145  0.49764832  0.81702851    -0.15700
F999        F  0.35649980  0.45044893  0.82428899    -0.19100
F1000       F  0.22058429  0.42721963  0.90020650    -0.22500
F1001       F  0.23677754  0.46848981  0.92475761    -0.24000
F1002       F  0.26367920  0.41936156  0.92655726    -0.18000
F1003       F  0.15925780  0.43053690  0.83744392    -0.20500
F1004       F  0.12997632  0.47567928  0.82577461    -0.21600
F1005       F  0.11662315  0.45017073  0.86058658    -0.18800
F1006       F  0.23058946  0.57208134  0.90410629    -0.18900
F1007       F  0.27148187  0.55275052  0.87909526    -0.22700
F1008       F  0.26108951  0.52688639  0.91393458    -0.24400
C1009       C  0.52141729  0.71419980  0.10793679    -0.11200
C1010       C  0.49343405  0.72109070  0.12330407     0.11400
C1011       C  0.47792399  0.69513565  0.13655882    -0.03000
C1012       C  0.49138358  0.66290453  0.13404711    -0.05700
C1013       C  0.52029971  0.65610028  0.11935101    -0.16500
C1014       C  0.53578661  0.68220874  0.10609224     0.02400
C1015       C  0.48119398  0.75594180  0.12509830     0.12400
C1016       C  0.44777166  0.70152250  0.15361020     0.63000
H1017       H  0.47984044  0.64277068  0.14405783     0.12400
C1018       C  0.56728819  0.67665490  0.09009776     0.55100
H1019       H  0.53246789  0.73445340  0.09780689     0.08200
C1020       C  0.49942460  0.77988153  0.13865868    -0.05600
C1021       C  0.48679864  0.81264050  0.13901063    -0.06300
C1022       C  0.45670845  0.82220552  0.12624020    -0.15900
C1023       C  0.43868500  0.79800250  0.11245484    -0.01500
C1024       C  0.45150183  0.76527499  0.11211922    -0.09100
C1025       C  0.53234931  0.77090002  0.15243918     0.65200
H1026       H  0.50058126  0.83116236  0.14930335     0.10700
C1027       C  0.40665565  0.80640092  0.09761898     0.63600
H1028       H  0.43851206  0.74649360  0.10158062     0.08000
F1029       F  0.59608852  0.66900584  0.10397515    -0.19400
F1030       F  0.57532558  0.70453336  0.07680808    -0.15700
F1031       F  0.56075193  0.65103496  0.07432417    -0.19100
F1032       F  0.41910189  0.71305010  0.14110958    -0.22500
F1033       F  0.45742597  0.72485589  0.17041152    -0.24000
F1034       F  0.43788010  0.67308761  0.16565742    -0.18000
F1035       F  0.39523953  0.77960666  0.08430355    -0.20500
F1036       F  0.41442743  0.83179196  0.08191708    -0.21600
F1037       F  0.37956531  0.81587735  0.11244582    -0.18800
F1038       F  0.54395787  0.79689123  0.16644722    -0.18900
F1039       F  0.55873793  0.76269887  0.13666073    -0.22700
F1040       F  0.52604000  0.74421567  0.16728957    -0.24400
C1041       C  0.44872092  0.53988673  0.26379414    -0.11200
C1042       C  0.48374702  0.53128068  0.26025763     0.11400
C1043       C  0.50490820  0.52271195  0.28002822    -0.03000
C1044       C  0.49053880  0.52483303  0.30312235    -0.05700
C1045       C  0.45573443  0.53479544  0.30682634    -0.16500
C1046       C  0.43391800  0.54093810  0.28673201     0.02400
C1047       C  0.49810648  0.53384215  0.23575304     0.12400
C1048       C  0.54271734  0.51217557  0.27673984     0.63000
H1049       H  0.50686937  0.51986291  0.31849779     0.12400
C1050       C  0.39501695  0.54777460  0.28916282     0.55100
H1051       H  0.43317102  0.54646200  0.24835133     0.08200
C1052       C  0.49144131  0.50985408  0.21793746    -0.05600
C1053       C  0.50551379  0.51475238  0.19499437    -0.06300
C1054       C  0.52566387  0.54280816  0.18943045    -0.15900
C1055       C  0.53216380  0.56690035  0.20743018    -0.01500
C1056       C  0.51797303  0.56190217  0.23028774    -0.09100
C1057       C  0.46922518  0.47951283  0.22304861     0.65200
H1058       H  0.50050847  0.49677756  0.18107787     0.10700
C1059       C  0.55306528  0.59823245  0.20267955     0.63600
H1060       H  0.52206497  0.58004806  0.24423384     0.08000
F1061       F  0.37992850  0.52395980  0.30362780    -0.19400
F1062       F  0.37813302  0.54680742  0.26730175    -0.15700
F1063       F  0.38964538  0.57884296  0.29885345    -0.19100
F1064       F  0.56267417  0.53913093  0.27004973    -0.22500
F1065       F  0.54508207  0.48810284  0.25925289    -0.24000
F1066       F  0.55660178  0.49920530  0.29756726    -0.18000
F1067       F  0.55337935  0.61921469  0.22224002    -0.20500
F1068       F  0.53863395  0.61542753  0.18370510    -0.21600
F1069       F  0.58734123  0.59006853  0.19753459    -0.18800
F1070       F  0.46862934  0.45790535  0.20386349    -0.18900
F1071       F  0.43523757  0.48904022  0.22776837    -0.22700
F1072       F  0.48232992  0.46262831  0.24257799    -0.24400
C1073       C  0.49898189  0.47538404  0.02898190    -0.11200
C1074       C  0.49600454  0.49759813  0.00990981     0.11400
C1075       C  0.50234079  0.53163264  0.01355602    -0.03000
C1076       C  0.51263337  0.54231157  0.03641105    -0.05700
C1077       C  0.51657608  0.52004759  0.05561350    -0.16500
C1078       C  0.50963770  0.48582876  0.05183600     0.02400
C1079       C  0.48572890  0.48428629  0.98629109     0.12400
C1080       C  0.49821207  0.55645966  0.99333749     0.63000
H1081       H  0.51770045  0.56828676  0.03941434     0.12400
C1082       C  0.51456311  0.45997311  0.07126039     0.55100
H1083       H  0.49333844  0.44960269  0.02560346     0.08200
C1084       C  0.51033564  0.46975019  0.97059817    -0.05600
C1085       C  0.49858250  0.45759176  0.94847220    -0.06300
C1086       C  0.46296998  0.45763131  0.94252734    -0.15900
C1087       C  0.43827334  0.47158121  0.95849347    -0.01500
C1088       C  0.45028933  0.48514000  0.98008673    -0.09100
C1089       C  0.54837853  0.46556748  0.97777244     0.65200
H1090       H  0.51688514  0.44629376  0.93616267     0.10700
C1091       C  0.39942567  0.47206698  0.95287713     0.63600
H1092       H  0.43198706  0.49580616  0.99267270     0.08000
F1093       F  0.50867710  0.42818661  0.06290261    -0.19400
F1094       F  0.49138769  0.46569888  0.08973613    -0.15700
F1095       F  0.54844977  0.46122897  0.07976980    -0.19100
F1096       F  0.46397450  0.55660292  0.98546231    -0.22500
F1097       F  0.51982777  0.54801509  0.97451792    -0.24000
F1098       F  0.50663964  0.58827738  0.00045971    -0.18000
F1099       F  0.38630392  0.44021138  0.95379865    -0.20500
F1100       F  0.39385971  0.48510542  0.93033532    -0.21600
F1101       F  0.38092309  0.49112473  0.96907369    -0.18800
F1102       F  0.56833287  0.45281135  0.95932003    -0.18900
F1103       F  0.55057721  0.44397597  0.99687700    -0.22700
F1104       F  0.56255880  0.49567974  0.98433590    -0.24400
C1105       C  0.95738431  0.26695998  0.09126254    -0.11200
C1106       C  0.98635139  0.25840489  0.10529196     0.11400
C1107       C  0.00353948  0.28301660  0.11889404    -0.03000
C1108       C  0.99089167  0.31567170  0.11794792    -0.05700
C1109       C  0.96145152  0.32435786  0.10424225    -0.16500
C1110       C  0.94411954  0.29950020  0.09075261     0.02400
C1111       C  0.99752115  0.22319150  0.10589004     0.12400
C1112       C  0.03473914  0.27478048  0.13466295     0.63000
H1113       H  0.00380413  0.33473047  0.12824621     0.12400
C1114       C  0.91237240  0.30709617  0.07542619     0.55100
H1115       H  0.94505227  0.24767590  0.08084623     0.08200
C1116       C  0.97891043  0.19912985  0.11910734    -0.05600
C1117       C  0.99155284  0.16649817  0.11952800    -0.06300
C1118       C  0.02252047  0.15742730  0.10775041    -0.15900
C1119       C  0.04121108  0.18161072  0.09447689    -0.01500
C1120       C  0.02774463  0.21403538  0.09336285    -0.09100
C1121       C  0.94582810  0.20779131  0.13274969     0.65200
H1122       H  0.97742873  0.14779887  0.12942641     0.10700
C1123       C  0.07494706  0.17350465  0.08138479     0.63600
H1124       H  0.04109761  0.23283945  0.08307198     0.08000
F1125       F  0.88497266  0.31746718  0.08968424    -0.19400
F1126       F  0.90112889  0.27959880  0.06283120    -0.15700
F1127       F  0.92058160  0.33159614  0.05910767    -0.19100
F1128       F  0.06241415  0.26418777  0.12077952    -0.22500
F1129       F  0.02590204  0.25006252  0.15064539    -0.24000
F1130       F  0.04587034  0.30195658  0.14766176    -0.18000
F1131       F  0.08714253  0.20017546  0.06829342    -0.20500
F1132       F  0.06950116  0.14748421  0.06575424    -0.21600
F1133       F  0.10064367  0.16502914  0.09765729    -0.18800
F1134       F  0.93504527  0.18203564  0.14730133    -0.18900
F1135       F  0.91919892  0.21466908  0.11682392    -0.22700
F1136       F  0.95146326  0.23512861  0.14710093    -0.24400
C1137       C  0.95735847  0.43836460  0.21997274    -0.11200
C1138       C  0.99259818  0.44639564  0.22337879     0.11400
C1139       C  0.01392251  0.45361775  0.20337512    -0.03000
C1140       C  0.99901811  0.45192727  0.18041238    -0.05700
C1141       C  0.96405011  0.44241011  0.17691185    -0.16500
C1142       C  0.94244808  0.43640888  0.19710116     0.02400
C1143       C  0.00671279  0.44253067  0.24792714     0.12400
C1144       C  0.05238188  0.46213258  0.20613122     0.63000
H1145       H  0.01516403  0.45649130  0.16488894     0.12400
C1146       C  0.90394586  0.42761308  0.19485678     0.55100
H1147       H  0.94185267  0.43227411  0.23554880     0.08200
C1148       C  0.99942297  0.46534595  0.26643252    -0.05600
C1149       C  0.00906270  0.45712998  0.28998485    -0.06300
C1150       C  0.02623955  0.42726948  0.29547868    -0.15900
C1151       C  0.03401385  0.40464608  0.27666786    -0.01500
C1152       C  0.02364597  0.41272502  0.25328194    -0.09100
C1153       C  0.98210996  0.49843544  0.26125261     0.65200
H1154       H  0.00334438  0.47421221  0.30434776     0.10700
C1155       C  0.05233508  0.37171268  0.28091252     0.63600
H1156       H  0.02804081  0.39541833  0.23882713     0.08000
F1157       F  0.88716289  0.42819434  0.21675442    -0.19400
F1158       F  0.90043899  0.39605664  0.18558453    -0.15700
F1159       F  0.88727842  0.45016326  0.18012513    -0.19100
F1160       F  0.07037556  0.43528034  0.21522746    -0.22500
F1161       F  0.05622107  0.48866747  0.22146204    -0.24000
F1162       F  0.06749719  0.47059252  0.18450061    -0.18000
F1163       F  0.05420321  0.35277612  0.26033334    -0.20500
F1164       F  0.03433588  0.35347017  0.29781392    -0.21600
F1165       F  0.08616134  0.37727180  0.28862851    -0.18800
F1166       F  0.97900508  0.51761042  0.28163440    -0.18900
F1167       F  0.94901203  0.49369381  0.25201162    -0.22700
F1168       F  0.00192141  0.51584660  0.24490229    -0.24400
C1169       C  0.01719508  0.47130432  0.01542548    -0.11200
C1170       C  0.99222180  0.48043913  0.99832932     0.11400
C1171       C  0.95620143  0.47788701  0.00370438    -0.03000
C1172       C  0.94638188  0.46671754  0.02645961    -0.05700
C1173       C  0.97128159  0.45823037  0.04381192    -0.16500
C1174       C  0.00738646  0.46045387  0.03833572     0.02400
C1175       C  0.00464286  0.49272154  0.97490773     0.12400
C1176       C  0.92824042  0.48688663  0.98554222     0.63000
H1177       H  0.91897726  0.46465010  0.03096160     0.12400
C1178       C  0.03541779  0.45081873  0.05624384     0.55100
H1179       H  0.04456470  0.47309568  0.01066219     0.08200
C1180       C  0.01613868  0.52566531  0.97181758    -0.05600
C1181       C  0.02626801  0.53598965  0.94890910    -0.06300
C1182       C  0.02523809  0.51449826  0.92915088    -0.15900
C1183       C  0.01487463  0.48106239  0.93250649    -0.01500
C1184       C  0.00488043  0.47074868  0.95553447    -0.09100
C1185       C  0.01759918  0.54984115  0.99260551     0.65200
H1186       H  0.03488535  0.56121091  0.94625504     0.10700
C1187       C  0.01486835  0.45608864  0.91221529     0.63600
H1188       H  0.99670032  0.44551027  0.95862549     0.08000
F1189       F  0.06845776  0.45121756  0.04616644    -0.19400
F1190       F  0.02924150  0.41917279  0.06469405    -0.15700
F1191       F  0.03527347  0.47287997  0.07512045    -0.19100
F1192       F  0.93063778  0.46619127  0.96596342    -0.22500
F1193       F  0.93251951  0.51929154  0.97817927    -0.24000
F1194       F  0.89491507  0.48377920  0.99491183    -0.18000
F1195       F  0.00756381  0.42438552  0.92016689    -0.20500
F1196       F  0.04736173  0.45539639  0.90138649    -0.21600
F1197       F  0.98968297  0.46462692  0.89559742    -0.18800
F1198       F  0.02717549  0.58130291  0.98531106    -0.18900
F1199       F  0.04181473  0.53913775  0.00922734    -0.22700
F1200       F  0.98519156  0.55204293  0.00338081    -0.24400
C1201       C  0.78570787  0.49939524  0.09433156    -0.11200
C1202       C  0.76332127  0.48836473  0.11250595     0.11400
C1203       C  0.77528051  0.46426525  0.12898117    -0.03000
C1204       C  0.80990564  0.45274639  0.12711366    -0.05700
C1205       C  0.83258276  0.46426761  0.10925722    -0.16500
C1206       C  0.82031122  0.48772128  0.09236597     0.02400
C1207       C  0.72700031  0.50159839  0.11321296     0.12400
C1208       C  0.75145516  0.45040762  0.14823492     0.63000
H1209       H  0.81958937  0.43445612  0.13959745     0.12400
C1210       C  0.84298046  0.49921365  0.07171688     0.55100
H1211       H  0.77567273  0.51713481  0.08158459     0.08200
C1212       C  0.71899546  0.53296850  0.12307730    -0.05600
C1213       C  0.68389479  0.54346701  0.12353148    -0.06300
C1214       C  0.65681082  0.52367550  0.11442025    -0.15900
C1215       C  0.66508126  0.49273988  0.10373354    -0.01500
C1216       C  0.70021656  0.48234080  0.10329005    -0.09100
C1217       C  0.74739591  0.55521933  0.13311596     0.65200
H1218       H  0.67727397  0.56717091  0.13128406     0.10700
C1219       C  0.63734492  0.47119990  0.09207117     0.63600
H1220       H  0.70716822  0.45888055  0.09528192     0.08000
F1221       F  0.87081856  0.51750455  0.08025926    -0.19400
F1222       F  0.82453349  0.51886364  0.05583850    -0.15700
F1223       F  0.85544597  0.47205323  0.05930273    -0.19100
F1224       F  0.72414910  0.43334969  0.13778488    -0.22500
F1225       F  0.73812948  0.47585101  0.16200599    -0.24000
F1226       F  0.76895986  0.42876213  0.16323672    -0.18000
F1227       F  0.65180319  0.44444405  0.08019888    -0.20500
F1228       F  0.61874742  0.48967768  0.07557225    -0.21600
F1229       F  0.61482829  0.45893115  0.10922972    -0.18800
F1230       F  0.73378620  0.58397548  0.14284775    -0.18900
F1231       F  0.77030996  0.56408987  0.11515136    -0.22700
F1232       F  0.76557025  0.53874859  0.15084728    -0.24400
loop_ 
_geom_bond_atom_site_label_1 
_geom_bond_atom_site_label_2 
_geom_bond_distance 
_geom_bond_site_symmetry_2 
_ccdc_geom_bond_type 
In1           O3   2.227       .  S
In1           O4   2.244       .  S
In1          O12   2.253       .  S
In1           O6   2.247       .  S
In1           O8   2.254       .  S
In1           O9   2.256       .  S
In1          O10   2.242       .  S
In1          O13   2.216       .  S
C2            O8   1.261       .  A
C2           O10   1.259       .  A
C2         C1109   1.488       .  S
O3           C11   1.261       .  A
O4           C11   1.261       .  A
C5           O12   1.261       .  A
C5            O6   1.262       .  A
C5         C1205   1.483       .  S
C7            O9   1.263       .  A
C7           O13   1.257       .  A
C7         C1141   1.484       .  S
C11        C1173   1.476       .  S
In14         O16   2.241       .  S
In14         O17   2.255       .  S
In14         O25   2.233       .  S
In14         O19   2.257       .  S
In14         O21   2.243       .  S
In14         O22   2.251       .  S
In14         O23   2.239       .  S
In14         O26   2.233       .  S
C15          O21   1.262       .  A
C15          O23   1.262       .  A
C15        C1013   1.485       .  S
O16          C24   1.261       .  A
O17          C24   1.261       .  A
C18          O25   1.258       .  A
C18          O19   1.263       .  A
C18        C1214   1.486       .  S
C20          O22   1.263       .  A
C20          O26   1.258       .  A
C20        C1054   1.484       .  S
C24        C1077   1.490       .  S
In27         O29   2.220       .  S
In27         O30   2.259       .  S
In27         O38   2.240       .  S
In27         O32   2.237       .  S
In27         O34   2.236       .  S
In27         O35   2.246       .  S
In27         O36   2.237       .  S
In27         O39   2.224       .  S
C28          O34   1.261       .  A
C28          O36   1.263       .  A
C28         C926   1.482       .  S
O29          C37   1.257       .  A
O30          C37   1.264       .  A
C31          O38   1.258       .  A
C31          O32   1.261       .  A
C31         C990   1.487       .  S
C33          O35   1.262       .  A
C33          O39   1.259       .  A
C33        C1182   1.483       .  S
C37         C949   1.487       .  S
In40         O42   2.223       .  S
In40         O43   2.253       .  S
In40         O51   2.240       .  S
In40         O45   2.245       .  S
In40         O47   2.244       .  S
In40         O48   2.252       .  S
In40         O49   2.235       .  S
In40         O52   2.223       .  S
C41          O47   1.262       .  A
C41          O49   1.259       .  A
C41         C862   1.476       .  S
O42          C50   1.258       .  A
O43          C50   1.264       .  A
C44          O51   1.259       .  A
C44          O45   1.262       .  A
C44         C981   1.482       .  S
C46          O48   1.263       .  A
C46          O52   1.258       .  A
C46        C1086   1.474       .  S
C50         C885   1.483       .  S
In53         O55   2.226       .  S
In53         O56   2.254       .  S
In53         O64   2.233       .  S
In53         O58   2.245       .  S
In53         O60   2.236       .  S
In53         O61   2.260       .  S
In53         O62   2.238       .  S
In53         O65   2.222       .  S
C54          O60   1.264       .  A
C54          O62   1.260       .  A
C54         C757   1.485       .  S
O55          C63   1.259       .  A
O56          C63   1.266       .  A
C57          O64   1.262       .  A
C57          O58   1.263       .  A
C57         C830   1.477       .  S
C59          O61   1.266       .  A
C59          O65   1.257       .  A
C59        C1150   1.491       .  S
C63         C789   1.483       .  S
In66         O68   2.246       .  S
In66         O69   2.240       .  S
In66         O77   2.239       .  S
In66         O71   2.248       .  S
In66         O73   2.248       .  S
In66         O74   2.262       .  S
In66         O75   2.234       .  S
In66         O78   2.215       .  S
C67          O73   1.263       .  A
C67          O75   1.258       .  A
C67         C693   1.480       .  S
O68          C76   1.262       .  A
O69          C76   1.261       .  A
C70          O77   1.261       .  A
C70          O71   1.260       .  A
C70         C821   1.485       .  S
C72          O74   1.264       .  A
C72          O78   1.257       .  A
C72        C1045   1.485       .  S
C76         C725   1.494       .  S
In79         O81   2.223       .  S
In79         O82   2.261       .  S
In79         O90   2.245       .  S
In79         O84   2.239       .  S
In79         O86   2.238       .  S
In79         O87   2.246       .  S
In79         O88   2.233       .  S
In79         O91   2.234       .  S
C80          O86   1.260       .  A
C80          O88   1.261       .  A
C80         C638   1.477       .  S
O81          C89   1.258       .  A
O82          C89   1.262       .  A
C83          O90   1.261       .  A
C83          O84   1.258       .  A
C83         C661   1.488       .  S
C85          O87   1.263       .  A
C85          O91   1.260       .  A
C85         C798   1.478       .  S
C89         C958   1.480       .  S
In92         O94   2.238       .  S
In92         O95   2.254       .  S
In92        O103   2.237       .  S
In92         O97   2.232       .  S
In92         O99   2.231       .  S
In92        O100   2.254       .  S
In92        O101   2.232       .  S
In92        O104   2.234       .  S
C93          O99   1.263       .  A
C93         O101   1.261       .  A
C93         C597   1.477       .  S
O94         C102   1.259       .  A
O95         C102   1.262       .  A
C96         O103   1.260       .  A
C96          O97   1.259       .  A
C96         C670   1.475       .  S
C98         O100   1.263       .  A
C98         O104   1.259       .  A
C98         C734   1.480       .  S
C102        C894   1.494       .  S
In105       O107   2.234       .  S
In105       O108   2.243       .  S
In105       O116   2.240       .  S
In105       O110   2.256       .  S
In105       O112   2.233       .  S
In105       O113   2.253       .  S
In105       O114   2.238       .  S
In105       O117   2.219       .  S
C106        O112   1.264       .  A
C106        O114   1.260       .  A
C106        C606   1.478       .  S
O107        C115   1.259       .  A
O108        C115   1.261       .  A
C109        O116   1.260       .  A
C109        O110   1.260       .  A
C109        C574   1.487       .  S
C111        O113   1.264       .  A
C111        O117   1.258       .  A
C111        C542   1.491       .  S
C115        C501   1.476       .  S
In118       O120   2.234       .  S
In118       O121   2.266       .  S
In118       O129   2.244       .  S
In118       O123   2.248       .  S
In118       O125   2.251       .  S
In118       O126   2.267       .  S
In118       O127   2.241       .  S
In118       O130   2.229       .  S
C119        O125   1.261       .  A
C119        O127   1.261       .  A
C119        C629   1.486       .  S
O120        C128   1.259       .  A
O121        C128   1.263       .  A
C122        O129   1.262       .  A
C122        O123   1.261       .  A
C122        C565   1.487       .  S
C124        O126   1.263       .  A
C124        O130   1.257       .  A
C124        C469   1.487       .  S
C128        C437   1.480       .  S
In131       O133   2.241       .  S
In131       O134   2.247       .  S
In131       O142   2.230       .  S
In131       O136   2.249       .  S
In131       O138   2.247       .  S
In131       O139   2.243       .  S
In131       O140   2.239       .  S
In131       O143   2.241       .  S
C132        O138   1.263       .  A
C132        O140   1.260       .  A
C132        C766   1.479       .  S
O133        C141   1.262       .  A
O134        C141   1.262       .  A
C135        O142   1.258       .  A
C135        O136   1.262       .  A
C135        C405   1.474       .  S
C137        O139   1.261       .  A
C137        O143   1.261       .  A
C137        C373   1.493       .  S
C141        C478   1.488       .  S
In144       O146   2.237       .  S
In144       O147   2.243       .  S
In144       O155   2.229       .  S
In144       O149   2.240       .  S
In144       O151   2.242       .  S
In144       O152   2.257       .  S
In144       O153   2.221       .  S
In144       O156   2.212       .  S
C145        O151   1.264       .  A
C145        O153   1.257       .  A
C145        C702   1.483       .  S
O146        C154   1.258       .  A
O147        C154   1.262       .  A
C148        O155   1.262       .  A
C148        O149   1.262       .  A
C148        C414   1.480       .  S
C150        O152   1.263       .  A
C150        O156   1.260       .  A
C150        C341   1.487       .  S
C154        C533   1.478       .  S
In157       O159   2.246       .  S
In157       O160   2.263       .  S
In157       O168   2.247       .  S
In157       O162   2.252       .  S
In157       O164   2.261       .  S
In157       O165   2.265       .  S
In157       O166   2.239       .  S
In157       O169   2.243       .  S
C158        O164   1.262       .  A
C158        O166   1.260       .  A
C158        C917   1.486       .  S
O159        C167   1.261       .  A
O160        C167   1.263       .  A
C161        O168   1.261       .  A
C161        O162   1.261       .  A
C161        C309   1.492       .  S
C163        O165   1.263       .  A
C163        O169   1.258       .  A
C163        C277   1.482       .  S
C167        C446   1.492       .  S
In170       O172   2.243       .  S
In170       O173   2.251       .  S
In170       O181   2.232       .  S
In170       O175   2.244       .  S
In170       O177   2.253       .  S
In170       O178   2.265       .  S
In170       O179   2.230       .  S
In170       O182   2.233       .  S
C171        O177   1.262       .  A
C171        O179   1.258       .  A
C171        C853   1.482       .  S
O172        C180   1.259       .  A
O173        C180   1.263       .  A
C174        O181   1.262       .  A
C174        O175   1.261       .  A
C174        C318   1.484       .  S
C176        O178   1.261       .  A
C176        O182   1.259       .  A
C176        C254   1.486       .  S
C180        C510   1.484       .  S
In183       O185   2.224       .  S
In183       O186   2.258       .  S
In183       O194   2.235       .  S
In183       O188   2.242       .  S
In183       O190   2.236       .  S
In183       O191   2.241       .  S
In183       O192   2.238       .  S
In183       O195   2.239       .  S
C184        O190   1.259       .  A
C184        O192   1.261       .  A
C184       C1118   1.483       .  S
O185        C193   1.257       .  A
O186        C193   1.263       .  A
C187        O194   1.259       .  A
C187        O188   1.262       .  A
C187        C213   1.485       .  S
C189        O191   1.260       .  A
C189        O195   1.261       .  A
C189        C382   1.486       .  S
C193        C286   1.487       .  S
In196       O198   2.227       .  S
In196       O199   2.250       .  S
In196       O207   2.254       .  S
In196       O201   2.246       .  S
In196       O203   2.260       .  S
In196       O204   2.263       .  S
In196       O205   2.252       .  S
In196       O208   2.229       .  S
C197        O203   1.261       .  A
C197        O205   1.261       .  A
C197       C1022   1.495       .  S
O198        C206   1.260       .  A
O199        C206   1.263       .  A
C200        O207   1.260       .  A
C200        O201   1.263       .  A
C200        C222   1.485       .  S
C202        O204   1.262       .  A
C202        O208   1.261       .  A
C202        C350   1.495       .  S
C206        C245   1.483       .  S
C209        C210   1.401   1_565  A
C209        C214   1.406       .  A
C209        H219   1.082       .  S
C210        C215   1.487   1_545  S
C210        C211   1.416       .  A
C211        C212   1.406       .  A
C211        C216   1.520       .  S
C212        C213   1.406       .  A
C212        H217   1.082       .  S
C213        C214   1.422   1_545  A
C214        C218   1.520       .  S
C215        C220   1.417       .  A
C215        C224   1.402   1_565  A
C216        F232   1.381       .  S
C216        F233   1.382       .  S
C216        F234   1.385       .  S
C218        F229   1.383       .  S
C218        F230   1.384       .  S
C218        F231   1.382       .  S
C220        C221   1.407       .  A
C220        C225   1.521       .  S
C221        C222   1.404       .  A
C221        H226   1.082       .  S
C222        C223   1.421       .  A
C223        C224   1.409   1_565  A
C223        C227   1.519   1_565  S
C224        H228   1.082       .  S
C225        F238   1.384       .  S
C225        F239   1.381       .  S
C225        F240   1.382       .  S
C227        F235   1.385       .  S
C227        F236   1.383   1_545  S
C227        F237   1.383       .  S
C241        C242   1.402       .  A
C241        C246   1.409       .  A
C241        H251   1.084       .  S
C242        C247   1.484   1_554  S
C242        C243   1.414       .  A
C243        C244   1.404       .  A
C243        C248   1.520       .  S
C244        C245   1.406       .  A
C244        H249   1.084       .  S
C245        C246   1.420       .  A
C246        C250   1.519       .  S
C247        C252   1.414   1_565  A
C247        C256   1.403       .  A
C248        F264   1.382   1_554  S
C248        F265   1.382   1_554  S
C248        F266   1.385       .  S
C250        F261   1.383       .  S
C250        F262   1.385       .  S
C250        F263   1.383       .  S
C252        C253   1.403       .  A
C252        C257   1.521   1_556  S
C253        C254   1.405       .  A
C253        H258   1.084       .  S
C254        C255   1.422   1_545  A
C255        C256   1.411       .  A
C255        C259   1.518       .  S
C256        H260   1.084       .  S
C257        F270   1.384       .  S
C257        F271   1.382       .  S
C257        F272   1.383       .  S
C259        F267   1.385       .  S
C259        F268   1.384       .  S
C259        F269   1.383       .  S
C273        C274   1.402       .  A
C273        C278   1.408       .  A
C273        H283   1.082   1_655  S
C274        C279   1.487   1_656  S
C274        C275   1.417   1_565  A
C275        C276   1.409   1_545  A
C275        C280   1.519       .  S
C276        C277   1.403       .  A
C276        H281   1.082   1_565  S
C277        C278   1.418       .  A
C278        C282   1.519   1_655  S
C279        C284   1.416   1_455  A
C279        C288   1.398   1_565  A
C280        F296   1.383   1_655  S
C280        F297   1.382       .  S
C280        F298   1.384       .  S
C282        F293   1.382   1_455  S
C282        F294   1.385       .  S
C282        F295   1.384       .  S
C284        C285   1.408   1_565  A
C284        C289   1.519       .  S
C285        C286   1.406   1_655  A
C285        H290   1.083       .  S
C286        C287   1.424       .  A
C287        C288   1.406       .  A
C287        C291   1.521       .  S
C288        H292   1.083   1_554  S
C289        F302   1.385       .  S
C289        F303   1.382       .  S
C289        F304   1.383       .  S
C291        F299   1.382       .  S
C291        F300   1.383       .  S
C291        F301   1.384       .  S
C305        C306   1.400       .  A
C305        C310   1.409       .  A
C305        H315   1.083       .  S
C306        C311   1.484       .  S
C306        C307   1.413       .  A
C307        C308   1.407       .  A
C307        C312   1.521   1_565  S
C308        C309   1.408       .  A
C308        H313   1.082       .  S
C309        C310   1.424       .  A
C310        C314   1.519       .  S
C311        C316   1.413       .  A
C311        C320   1.403   1_565  A
C312        F328   1.382       .  S
C312        F329   1.382       .  S
C312        F330   1.384       .  S
C314        F325   1.383       .  S
C314        F326   1.385       .  S
C314        F327   1.383       .  S
C316        C317   1.403       .  A
C316        C321   1.520       .  S
C317        C318   1.405   1_565  A
C317        H322   1.083       .  S
C318        C319   1.422       .  A
C319        C320   1.410       .  A
C319        C323   1.520       .  S
C320        H324   1.083       .  S
C321        F334   1.384       .  S
C321        F335   1.382       .  S
C321        F336   1.382       .  S
C323        F331   1.385       .  S
C323        F332   1.384       .  S
C323        F333   1.383       .  S
C337        C338   1.404       .  A
C337        C342   1.412       .  A
C337        H347   1.083       .  S
C338        C343   1.486       .  S
C338        C339   1.414       .  A
C339        C340   1.400       .  A
C339        C344   1.521       .  S
C340        C341   1.405       .  A
C340        H345   1.082       .  S
C341        C342   1.422       .  A
C342        C346   1.519       .  S
C343        C348   1.413       .  A
C343        C352   1.402       .  A
C344        F360   1.382       .  S
C344        F361   1.383       .  S
C344        F362   1.385       .  S
C346        F357   1.384       .  S
C346        F358   1.385       .  S
C346        F359   1.383       .  S
C348        C349   1.404       .  A
C348        C353   1.521       .  S
C349        C350   1.409       .  A
C349        H354   1.082       .  S
C350        C351   1.425       .  A
C351        C352   1.412       .  A
C351        C355   1.519       .  S
C352        H356   1.083       .  S
C353        F366   1.384       .  S
C353        F367   1.382       .  S
C353        F368   1.383       .  S
C355        F363   1.385   1_565  S
C355        F364   1.383   1_565  S
C355        F365   1.383       .  S
C369        C370   1.398       .  A
C369        C374   1.408       .  A
C369        H379   1.083   1_655  S
C370        C375   1.481       .  S
C370        C371   1.412       .  A
C371        C372   1.407       .  A
C371        C376   1.521       .  S
C372        C373   1.411       .  A
C372        H377   1.082       .  S
C373        C374   1.425       .  A
C374        C378   1.520   1_545  S
C375        C380   1.414   1_655  A
C375        C384   1.401       .  A
C376        F392   1.382       .  S
C376        F393   1.382       .  S
C376        F394   1.384       .  S
C378        F389   1.383   1_665  S
C378        F390   1.385   1_655  S
C378        F391   1.383       .  S
C380        C381   1.404       .  A
C380        C385   1.522       .  S
C381        C382   1.407       .  A
C381        H386   1.083       .  S
C382        C383   1.422   1_455  A
C383        C384   1.409       .  A
C383        C387   1.519   1_545  S
C384        H388   1.083   1_545  S
C385        F398   1.384       .  S
C385        F399   1.382       .  S
C385        F400   1.382   1_455  S
C387        F395   1.384       .  S
C387        F396   1.384   1_655  S
C387        F397   1.383   1_565  S
C401        C402   1.402   1_545  A
C401        C406   1.406       .  A
C401        H411   1.082       .  S
C402        C407   1.476       .  S
C402        C403   1.413       .  A
C403        C404   1.404       .  A
C403        C408   1.522       .  S
C404        C405   1.405   1_565  A
C404        H409   1.083       .  S
C405        C406   1.416       .  A
C406        C410   1.518       .  S
C407        C412   1.411       .  A
C407        C416   1.400       .  A
C408        F424   1.382       .  S
C408        F425   1.382       .  S
C408        F426   1.384       .  S
C410        F421   1.382       .  S
C410        F422   1.385       .  S
C410        F423   1.384       .  S
C412        C413   1.403       .  A
C412        C417   1.521   1_565  S
C413        C414   1.406       .  A
C413        H418   1.082       .  S
C414        C415   1.421       .  A
C415        C416   1.406       .  A
C415        C419   1.520       .  S
C416        H420   1.083       .  S
C417        F430   1.384       .  S
C417        F431   1.382       .  S
C417        F432   1.382       .  S
C419        F427   1.385       .  S
C419        F428   1.383       .  S
C419        F429   1.382       .  S
C433        C434   1.401       .  A
C433        C438   1.405       .  A
C433        H443   1.083       .  S
C434        C439   1.489       .  S
C434        C435   1.418   1_655  A
C435        C436   1.412       .  A
C435        C440   1.519       .  S
C436        C437   1.405       .  A
C436        H441   1.082       .  S
C437        C438   1.416   1_455  A
C438        C442   1.519       .  S
C439        C444   1.414       .  A
C439        C448   1.402   1_655  A
C440        F456   1.382       .  S
C440        F457   1.382   1_465  S
C440        F458   1.384   1_565  S
C442        F453   1.384       .  S
C442        F454   1.381   1_655  S
C442        F455   1.384       .  S
C444        C445   1.409       .  A
C444        C449   1.519       .  S
C445        C446   1.408       .  A
C445        H450   1.082       .  S
C446        C447   1.422   1_655  A
C447        C448   1.410       .  A
C447        C451   1.518       .  S
C448        H452   1.082       .  S
C449        F462   1.384       .  S
C449        F463   1.382       .  S
C449        F464   1.383       .  S
C451        F459   1.385       .  S
C451        F460   1.383       .  S
C451        F461   1.383       .  S
C465        C466   1.401   1_455  A
C465        C470   1.408       .  A
C465        H475   1.083       .  S
C466        C471   1.487       .  S
C466        C467   1.415       .  A
C467        C468   1.410       .  A
C467        C472   1.520       .  S
C468        C469   1.406   1_655  A
C468        H473   1.083       .  S
C469        C470   1.422       .  A
C470        C474   1.521       .  S
C471        C476   1.413   1_565  A
C471        C480   1.403       .  A
C472        F488   1.382       .  S
C472        F489   1.381       .  S
C472        F490   1.384       .  S
C474        F485   1.384       .  S
C474        F486   1.383       .  S
C474        F487   1.384       .  S
C476        C477   1.406       .  A
C476        C481   1.520       .  S
C477        C478   1.406       .  A
C477        H482   1.080       .  S
C478        C479   1.422   1_545  A
C479        C480   1.411       .  A
C479        C483   1.521       .  S
C480        H484   1.080       .  S
C481        F494   1.384       .  S
C481        F495   1.382   1_655  S
C481        F496   1.381       .  S
C483        F491   1.383       .  S
C483        F492   1.384       .  S
C483        F493   1.385       .  S
C497        C498   1.401       .  A
C497        C502   1.406       .  A
C497        H507   1.083   1_545  S
C498        C503   1.480       .  S
C498        C499   1.415       .  A
C499        C500   1.404       .  A
C499        C504   1.521       .  S
C500        C501   1.404       .  A
C500        H505   1.083       .  S
C501        C502   1.417       .  A
C502        C506   1.518   1_545  S
C503        C508   1.413       .  A
C503        C512   1.399       .  A
C504        F520   1.382       .  S
C504        F521   1.382       .  S
C504        F522   1.385       .  S
C506        F517   1.384       .  S
C506        F518   1.382       .  S
C506        F519   1.384       .  S
C508        C509   1.406       .  A
C508        C513   1.520       .  S
C509        C510   1.407       .  A
C509        H514   1.083       .  S
C510        C511   1.422       .  A
C511        C512   1.406       .  A
C511        C515   1.518       .  S
C512        H516   1.083       .  S
C513        F526   1.384       .  S
C513        F527   1.382       .  S
C513        F528   1.382       .  S
C515        F523   1.385       .  S
C515        F524   1.384       .  S
C515        F525   1.382       .  S
C529        C530   1.402       .  A
C529        C534   1.407       .  A
C529        H539   1.083       .  S
C530        C535   1.485       .  S
C530        C531   1.417       .  A
C531        C532   1.405       .  A
C531        C536   1.521       .  S
C532        C533   1.402       .  A
C532        H537   1.083       .  S
C533        C534   1.419       .  A
C534        C538   1.520       .  S
C535        C540   1.414       .  A
C535        C544   1.399   1_565  A
C536        F552   1.381       .  S
C536        F553   1.383       .  S
C536        F554   1.384       .  S
C538        F549   1.383       .  S
C538        F550   1.384       .  S
C538        F551   1.383       .  S
C540        C541   1.408       .  A
C540        C545   1.520       .  S
C541        C542   1.409   1_565  A
C541        H546   1.082       .  S
C542        C543   1.425       .  A
C543        C544   1.406       .  A
C543        C547   1.522       .  S
C544        H548   1.082       .  S
C545        F558   1.384       .  S
C545        F559   1.382       .  S
C545        F560   1.383       .  S
C547        F555   1.384       .  S
C547        F556   1.380       .  S
C547        F557   1.384       .  S
C561        C562   1.401       .  A
C561        C566   1.408       .  A
C561        H571   1.083       .  S
C562        C567   1.483       .  S
C562        C563   1.413       .  A
C563        C564   1.406       .  A
C563        C568   1.520   1_565  S
C564        C565   1.407       .  A
C564        H569   1.082       .  S
C565        C566   1.422       .  A
C566        C570   1.519       .  S
C567        C572   1.414       .  A
C567        C576   1.399   1_565  A
C568        F584   1.382       .  S
C568        F585   1.382       .  S
C568        F586   1.384       .  S
C570        F581   1.383       .  S
C570        F582   1.385       .  S
C570        F583   1.383       .  S
C572        C573   1.406       .  A
C572        C577   1.521       .  S
C573        C574   1.407   1_565  A
C573        H578   1.082       .  S
C574        C575   1.422       .  A
C575        C576   1.407       .  A
C575        C579   1.519       .  S
C576        H580   1.082       .  S
C577        F590   1.385       .  S
C577        F591   1.382       .  S
C577        F592   1.382       .  S
C579        F587   1.385       .  S
C579        F588   1.383       .  S
C579        F589   1.383       .  S
C593        C594   1.400       .  A
C593        C598   1.404       .  A
C593        H603   1.083       .  S
C594        C599   1.476       .  S
C594        C595   1.413       .  A
C595        C596   1.403       .  A
C595        C600   1.520       .  S
C596        C597   1.405       .  A
C596        H601   1.083       .  S
C597        C598   1.420       .  A
C598        C602   1.520       .  S
C599        C604   1.414       .  A
C599        C608   1.399       .  A
C600        F616   1.382       .  S
C600        F617   1.382       .  S
C600        F618   1.385       .  S
C602        F613   1.382       .  S
C602        F614   1.385       .  S
C602        F615   1.383       .  S
C604        C605   1.403       .  A
C604        C609   1.520       .  S
C605        C606   1.404       .  A
C605        H610   1.083       .  S
C606        C607   1.421       .  A
C607        C608   1.404       .  A
C607        C611   1.518       .  S
C608        H612   1.084       .  S
C609        F622   1.385       .  S
C609        F623   1.382       .  S
C609        F624   1.382       .  S
C611        F619   1.385       .  S
C611        F620   1.380       .  S
C611        F621   1.382       .  S
C625        C626   1.401   1_455  A
C625        C630   1.408       .  A
C625        H635   1.082       .  S
C626        C631   1.483       .  S
C626        C627   1.414       .  A
C627        C628   1.406       .  A
C627        C632   1.520       .  S
C628        C629   1.407   1_655  A
C628        H633   1.082       .  S
C629        C630   1.421       .  A
C630        C634   1.519       .  S
C631        C636   1.415       .  A
C631        C640   1.402       .  A
C632        F648   1.382       .  S
C632        F649   1.382       .  S
C632        F650   1.384       .  S
C634        F645   1.383       .  S
C634        F646   1.385       .  S
C634        F647   1.383       .  S
C636        C637   1.403       .  A
C636        C641   1.519   1_655  S
C637        C638   1.403       .  A
C637        H642   1.086       .  S
C638        C639   1.420       .  A
C639        C640   1.406       .  A
C639        C643   1.520       .  S
C640        H644   1.083       .  S
C641        F654   1.385       .  S
C641        F655   1.382       .  S
C641        F656   1.381       .  S
C643        F651   1.385       .  S
C643        F652   1.383       .  S
C643        F653   1.382       .  S
C657        C658   1.399       .  A
C657        C662   1.407       .  A
C657        H667   1.083       .  S
C658        C663   1.480       .  S
C658        C659   1.411       .  A
C659        C660   1.405       .  A
C659        C664   1.520       .  S
C660        C661   1.408       .  A
C660        H665   1.082       .  S
C661        C662   1.425       .  A
C662        C666   1.521       .  S
C663        C668   1.414       .  A
C663        C672   1.403       .  A
C664        F680   1.382       .  S
C664        F681   1.382       .  S
C664        F682   1.384       .  S
C666        F677   1.383       .  S
C666        F678   1.385       .  S
C666        F679   1.384       .  S
C668        C669   1.404       .  A
C668        C673   1.521       .  S
C669        C670   1.403       .  A
C669        H674   1.083       .  S
C670        C671   1.418       .  A
C671        C672   1.408       .  A
C671        C675   1.520       .  S
C672        H676   1.083       .  S
C673        F686   1.384       .  S
C673        F687   1.382       .  S
C673        F688   1.382       .  S
C675        F683   1.384       .  S
C675        F684   1.384       .  S
C675        F685   1.383       .  S
C689        C690   1.398       .  A
C689        C694   1.404       .  A
C689        H699   1.083       .  S
C690        C695   1.477       .  S
C690        C691   1.414       .  A
C691        C692   1.406       .  A
C691        C696   1.521       .  S
C692        C693   1.406       .  A
C692        H697   1.083       .  S
C693        C694   1.421       .  A
C694        C698   1.520       .  S
C695        C700   1.412       .  A
C695        C704   1.397       .  A
C696        F712   1.382       .  S
C696        F713   1.383       .  S
C696        F714   1.384       .  S
C698        F709   1.383       .  S
C698        F710   1.385       .  S
C698        F711   1.384       .  S
C700        C701   1.404       .  A
C700        C705   1.519       .  S
C701        C702   1.407       .  A
C701        H706   1.082       .  S
C702        C703   1.425       .  A
C703        C704   1.404       .  A
C703        C707   1.522       .  S
C704        H708   1.082       .  S
C705        F718   1.385       .  S
C705        F719   1.382       .  S
C705        F720   1.383       .  S
C707        F715   1.385       .  S
C707        F716   1.383       .  S
C707        F717   1.383       .  S
C721        C722   1.400       .  A
C721        C726   1.409       .  A
C721        H731   1.082       .  S
C722        C727   1.486       .  S
C722        C723   1.413       .  A
C723        C724   1.408       .  A
C723        C728   1.520       .  S
C724        C725   1.410       .  A
C724        H729   1.081       .  S
C725        C726   1.424       .  A
C726        C730   1.520       .  S
C727        C732   1.415       .  A
C727        C736   1.403       .  A
C728        F744   1.382       .  S
C728        F745   1.383       .  S
C728        F746   1.384       .  S
C730        F741   1.384       .  S
C730        F742   1.383       .  S
C730        F743   1.384       .  S
C732        C733   1.406       .  A
C732        C737   1.519       .  S
C733        C734   1.404       .  A
C733        H738   1.082       .  S
C734        C735   1.418       .  A
C735        C736   1.409       .  A
C735        C739   1.519       .  S
C736        H740   1.083       .  S
C737        F750   1.385       .  S
C737        F751   1.382       .  S
C737        F752   1.382       .  S
C739        F747   1.385       .  S
C739        F748   1.384       .  S
C739        F749   1.382       .  S
C753        C754   1.402       .  A
C753        C758   1.409       .  A
C753        H763   1.083       .  S
C754        C759   1.481       .  S
C754        C755   1.412   1_655  A
C755        C756   1.403       .  A
C755        C760   1.520       .  S
C756        C757   1.406       .  A
C756        H761   1.082       .  S
C757        C758   1.424   1_455  A
C758        C762   1.521       .  S
C759        C764   1.415       .  A
C759        C768   1.400       .  A
C760        F776   1.382       .  S
C760        F777   1.381       .  S
C760        F778   1.384       .  S
C762        F773   1.383       .  S
C762        F774   1.385       .  S
C762        F775   1.384       .  S
C764        C765   1.408       .  A
C764        C769   1.520       .  S
C765        C766   1.404       .  A
C765        H770   1.083       .  S
C766        C767   1.420       .  A
C767        C768   1.405       .  A
C767        C771   1.520       .  S
C768        H772   1.083       .  S
C769        F782   1.385       .  S
C769        F783   1.382       .  S
C769        F784   1.382       .  S
C771        F779   1.385   1_655  S
C771        F780   1.383       .  S
C771        F781   1.382   1_655  S
C785        C786   1.399   1_455  A
C785        C790   1.406       .  A
C785        H795   1.083       .  S
C786        C791   1.482       .  S
C786        C787   1.415       .  A
C787        C788   1.407       .  A
C787        C792   1.519       .  S
C788        C789   1.404   1_655  A
C788        H793   1.083       .  S
C789        C790   1.423       .  A
C790        C794   1.520       .  S
C791        C796   1.416       .  A
C791        C800   1.401       .  A
C792        F808   1.382       .  S
C792        F809   1.382       .  S
C792        F810   1.384       .  S
C794        F805   1.385       .  S
C794        F806   1.382       .  S
C794        F807   1.383       .  S
C796        C797   1.406       .  A
C796        C801   1.519       .  S
C797        C798   1.403       .  A
C797        H802   1.083       .  S
C798        C799   1.419       .  A
C799        C800   1.406       .  A
C799        C803   1.519       .  S
C800        H804   1.083       .  S
C801        F814   1.385       .  S
C801        F815   1.382   1_655  S
C801        F816   1.382       .  S
C803        F811   1.385       .  S
C803        F812   1.383       .  S
C803        F813   1.382       .  S
C817        C818   1.399       .  A
C817        C822   1.407       .  A
C817        H827   1.082       .  S
C818        C823   1.480       .  S
C818        C819   1.413       .  A
C819        C820   1.405       .  A
C819        C824   1.520       .  S
C820        C821   1.407       .  A
C820        H825   1.082       .  S
C821        C822   1.422       .  A
C822        C826   1.519       .  S
C823        C828   1.415       .  A
C823        C832   1.401       .  A
C824        F840   1.382       .  S
C824        F841   1.383       .  S
C824        F842   1.385       .  S
C826        F837   1.382       .  S
C826        F838   1.385       .  S
C826        F839   1.382       .  S
C828        C829   1.405       .  A
C828        C833   1.520       .  S
C829        C830   1.404       .  A
C829        H834   1.081       .  S
C830        C831   1.417       .  A
C831        C832   1.407       .  A
C831        C835   1.518       .  S
C832        H836   1.082       .  S
C833        F846   1.385       .  S
C833        F847   1.382       .  S
C833        F848   1.383       .  S
C835        F843   1.385       .  S
C835        F844   1.384       .  S
C835        F845   1.382       .  S
C849        C850   1.399       .  A
C849        C854   1.405       .  A
C849        H859   1.082       .  S
C850        C855   1.482       .  S
C850        C851   1.415       .  A
C851        C852   1.407       .  A
C851        C856   1.519       .  S
C852        C853   1.405       .  A
C852        H857   1.083       .  S
C853        C854   1.421       .  A
C854        C858   1.519       .  S
C855        C860   1.417       .  A
C855        C864   1.401       .  A
C856        F872   1.383       .  S
C856        F873   1.383       .  S
C856        F874   1.385       .  S
C858        F869   1.383       .  S
C858        F870   1.385       .  S
C858        F871   1.384       .  S
C860        C861   1.405       .  A
C860        C865   1.520       .  S
C861        C862   1.402       .  A
C861        H866   1.082       .  S
C862        C863   1.417       .  A
C863        C864   1.407       .  A
C863        C867   1.519       .  S
C864        H868   1.082       .  S
C865        F878   1.385       .  S
C865        F879   1.382       .  S
C865        F880   1.382       .  S
C867        F875   1.385       .  S
C867        F876   1.384       .  S
C867        F877   1.381       .  S
C881        C882   1.401       .  A
C881        C886   1.405       .  A
C881        H891   1.083       .  S
C882        C887   1.485       .  S
C882        C883   1.414       .  A
C883        C884   1.408       .  A
C883        C888   1.519       .  S
C884        C885   1.406       .  A
C884        H889   1.082       .  S
C885        C886   1.422       .  A
C886        C890   1.522       .  S
C887        C892   1.414       .  A
C887        C896   1.401       .  A
C888        F904   1.382       .  S
C888        F905   1.382       .  S
C888        F906   1.385       .  S
C890        F901   1.385       .  S
C890        F902   1.383       .  S
C890        F903   1.384       .  S
C892        C893   1.406       .  A
C892        C897   1.522       .  S
C893        C894   1.409       .  A
C893        H898   1.081       .  S
C894        C895   1.423       .  A
C895        C896   1.409       .  A
C895        C899   1.519       .  S
C896        H900   1.082       .  S
C897        F910   1.384       .  S
C897        F911   1.381       .  S
C897        F912   1.382       .  S
C899        F907   1.384       .  S
C899        F908   1.383       .  S
C899        F909   1.384       .  S
C913        C914   1.401       .  A
C913        C918   1.408       .  A
C913        H923   1.084       .  S
C914        C919   1.484   1_655  S
C914        C915   1.414   1_655  A
C915        C916   1.406   1_455  A
C915        C920   1.520       .  S
C916        C917   1.407       .  A
C916        H921   1.083   1_655  S
C917        C918   1.421       .  A
C918        C922   1.518       .  S
C919        C924   1.415   1_455  A
C919        C928   1.401       .  A
C920        F936   1.382       .  S
C920        F937   1.382       .  S
C920        F938   1.385       .  S
C922        F933   1.382       .  S
C922        F934   1.385       .  S
C922        F935   1.383       .  S
C924        C925   1.406   1_655  A
C924        C929   1.519       .  S
C925        C926   1.405       .  A
C925        H930   1.083   1_455  S
C926        C927   1.420       .  A
C927        C928   1.407       .  A
C927        C931   1.520       .  S
C928        H932   1.082       .  S
C929        F942   1.385       .  S
C929        F943   1.382       .  S
C929        F944   1.382       .  S
C931        F939   1.385       .  S
C931        F940   1.384       .  S
C931        F941   1.383       .  S
C945        C946   1.398   1_455  A
C945        C950   1.405       .  A
C945        H955   1.083       .  S
C946        C951   1.480       .  S
C946        C947   1.414       .  A
C947        C948   1.408       .  A
C947        C952   1.521       .  S
C948        C949   1.408   1_655  A
C948        H953   1.082       .  S
C949        C950   1.424       .  A
C950        C954   1.521       .  S
C951        C956   1.414       .  A
C951        C960   1.404       .  A
C952        F968   1.382       .  S
C952        F969   1.381       .  S
C952        F970   1.385       .  S
C954        F965   1.385       .  S
C954        F966   1.384       .  S
C954        F967   1.383       .  S
C956        C957   1.402       .  A
C956        C961   1.522       .  S
C957        C958   1.404       .  A
C957        H962   1.082       .  S
C958        C959   1.418       .  A
C959        C960   1.410       .  A
C959        C963   1.518       .  S
C960        H964   1.082       .  S
C961        F974   1.385       .  S
C961        F975   1.382   1_655  S
C961        F976   1.381       .  S
C963        F971   1.385       .  S
C963        F972   1.383   1_655  S
C963        F973   1.383       .  S
C977        C978   1.401       .  A
C977        C982   1.407       .  A
C977        H987   1.082       .  S
C978        C983   1.479       .  S
C978        C979   1.413       .  A
C979        C980   1.405       .  A
C979        C984   1.521       .  S
C980        C981   1.405       .  A
C980        H985   1.082       .  S
C981        C982   1.421       .  A
C982        C986   1.520       .  S
C983        C988   1.412       .  A
C983        C992   1.399       .  A
C984       F1000   1.382       .  S
C984       F1001   1.381       .  S
C984       F1002   1.384       .  S
C986        F997   1.382       .  S
C986        F998   1.385       .  S
C986        F999   1.384       .  S
C988        C989   1.404       .  A
C988        C993   1.520       .  S
C989        C990   1.408       .  A
C989        H994   1.082       .  S
C990        C991   1.424       .  A
C991        C992   1.406       .  A
C991        C995   1.521       .  S
C992        H996   1.082       .  S
C993       F1006   1.385       .  S
C993       F1007   1.382       .  S
C993       F1008   1.381       .  S
C995       F1003   1.385       .  S
C995       F1004   1.383       .  S
C995       F1005   1.383       .  S
C1009      C1010   1.402       .  A
C1009      C1014   1.408       .  A
C1009      H1019   1.082       .  S
C1010      C1015   1.487       .  S
C1010      C1011   1.415       .  A
C1011      C1012   1.407       .  A
C1011      C1016   1.520       .  S
C1012      C1013   1.406       .  A
C1012      H1017   1.082       .  S
C1013      C1014   1.420       .  A
C1014      C1018   1.519       .  S
C1015      C1020   1.414       .  A
C1015      C1024   1.400       .  A
C1016      F1032   1.382       .  S
C1016      F1033   1.382       .  S
C1016      F1034   1.385       .  S
C1018      F1029   1.383       .  S
C1018      F1030   1.384       .  S
C1018      F1031   1.384       .  S
C1020      C1021   1.409       .  A
C1020      C1025   1.521       .  S
C1021      C1022   1.409       .  A
C1021      H1026   1.082       .  S
C1022      C1023   1.424       .  A
C1023      C1024   1.410       .  A
C1023      C1027   1.519       .  S
C1024      H1028   1.082       .  S
C1025      F1038   1.384       .  S
C1025      F1039   1.382       .  S
C1025      F1040   1.383       .  S
C1027      F1035   1.385       .  S
C1027      F1036   1.383       .  S
C1027      F1037   1.382       .  S
C1041      C1042   1.399       .  A
C1041      C1046   1.404       .  A
C1041      H1051   1.082       .  S
C1042      C1047   1.482       .  S
C1042      C1043   1.414       .  A
C1043      C1044   1.408       .  A
C1043      C1048   1.519       .  S
C1044      C1045   1.407       .  A
C1044      H1049   1.082       .  S
C1045      C1046   1.422       .  A
C1046      C1050   1.520       .  S
C1047      C1052   1.414       .  A
C1047      C1056   1.399       .  A
C1048      F1064   1.382       .  S
C1048      F1065   1.383       .  S
C1048      F1066   1.384       .  S
C1050      F1061   1.384       .  S
C1050      F1062   1.384       .  S
C1050      F1063   1.383       .  S
C1052      C1053   1.407       .  A
C1052      C1057   1.519       .  S
C1053      C1054   1.406       .  A
C1053      H1058   1.082       .  S
C1054      C1055   1.423       .  A
C1055      C1056   1.405       .  A
C1055      C1059   1.521       .  S
C1056      H1060   1.082       .  S
C1057      F1070   1.384       .  S
C1057      F1071   1.382       .  S
C1057      F1072   1.382       .  S
C1059      F1067   1.385       .  S
C1059      F1068   1.384       .  S
C1059      F1069   1.383       .  S
C1073      C1074   1.399       .  A
C1073      C1078   1.408       .  A
C1073      H1083   1.080       .  S
C1074      C1079   1.481   1_554  S
C1074      C1075   1.411       .  A
C1075      C1076   1.407       .  A
C1075      C1080   1.520   1_554  S
C1076      C1077   1.410       .  A
C1076      H1081   1.080       .  S
C1077      C1078   1.424       .  A
C1078      C1082   1.519       .  S
C1079      C1084   1.415       .  A
C1079      C1088   1.400       .  A
C1080      F1096   1.382       .  S
C1080      F1097   1.382       .  S
C1080      F1098   1.384   1_556  S
C1082      F1093   1.385       .  S
C1082      F1094   1.382       .  S
C1082      F1095   1.382       .  S
C1084      C1085   1.407       .  A
C1084      C1089   1.519       .  S
C1085      C1086   1.403       .  A
C1085      H1090   1.083       .  S
C1086      C1087   1.418       .  A
C1087      C1088   1.405       .  A
C1087      C1091   1.520       .  S
C1088      H1092   1.083       .  S
C1089      F1102   1.384       .  S
C1089      F1103   1.383       .  S
C1089      F1104   1.382       .  S
C1091      F1099   1.383       .  S
C1091      F1100   1.384       .  S
C1091      F1101   1.384       .  S
C1105      C1106   1.401       .  A
C1105      C1110   1.409       .  A
C1105      H1115   1.082       .  S
C1106      C1111   1.485       .  S
C1106      C1107   1.415   1_655  A
C1107      C1108   1.406   1_455  A
C1107      C1112   1.521       .  S
C1108      C1109   1.407       .  A
C1108      H1113   1.082   1_655  S
C1109      C1110   1.421       .  A
C1110      C1114   1.518       .  S
C1111      C1116   1.414       .  A
C1111      C1120   1.402   1_655  A
C1112      F1128   1.382       .  S
C1112      F1129   1.383       .  S
C1112      F1130   1.385       .  S
C1114      F1125   1.383       .  S
C1114      F1126   1.385       .  S
C1114      F1127   1.383       .  S
C1116      C1117   1.404       .  A
C1116      C1121   1.520       .  S
C1117      C1118   1.405   1_655  A
C1117      H1122   1.082       .  S
C1118      C1119   1.421       .  A
C1119      C1120   1.409       .  A
C1119      C1123   1.520       .  S
C1120      H1124   1.082       .  S
C1121      F1134   1.385       .  S
C1121      F1135   1.382       .  S
C1121      F1136   1.383       .  S
C1123      F1131   1.384       .  S
C1123      F1132   1.384       .  S
C1123      F1133   1.383       .  S
C1137      C1138   1.400       .  A
C1137      C1142   1.404       .  A
C1137      H1147   1.083       .  S
C1138      C1143   1.485   1_655  S
C1138      C1139   1.416   1_655  A
C1139      C1140   1.408   1_455  A
C1139      C1144   1.520       .  S
C1140      C1141   1.406       .  A
C1140      H1145   1.082   1_655  S
C1141      C1142   1.422       .  A
C1142      C1146   1.521       .  S
C1143      C1148   1.415   1_455  A
C1143      C1152   1.399       .  A
C1144      F1160   1.382       .  S
C1144      F1161   1.381       .  S
C1144      F1162   1.385       .  S
C1146      F1157   1.384       .  S
C1146      F1158   1.383       .  S
C1146      F1159   1.384       .  S
C1148      C1149   1.409   1_655  A
C1148      C1153   1.519       .  S
C1149      C1150   1.407       .  A
C1149      H1154   1.082       .  S
C1150      C1151   1.426       .  A
C1151      C1152   1.406       .  A
C1151      C1155   1.522       .  S
C1152      H1156   1.083       .  S
C1153      F1166   1.384       .  S
C1153      F1167   1.382       .  S
C1153      F1168   1.381   1_655  S
C1155      F1163   1.385       .  S
C1155      F1164   1.383       .  S
C1155      F1165   1.383       .  S
C1169      C1170   1.402   1_454  A
C1169      C1174   1.407       .  A
C1169      H1179   1.083       .  S
C1170      C1175   1.481   1_655  S
C1170      C1171   1.415   1_556  A
C1171      C1172   1.403       .  A
C1171      C1176   1.520   1_554  S
C1172      C1173   1.403       .  A
C1172      H1177   1.082       .  S
C1173      C1174   1.418   1_655  A
C1174      C1178   1.519       .  S
C1175      C1180   1.412       .  A
C1175      C1184   1.402       .  A
C1176      F1192   1.382       .  S
C1176      F1193   1.382       .  S
C1176      F1194   1.385       .  S
C1178      F1189   1.385       .  S
C1178      F1190   1.384       .  S
C1178      F1191   1.383       .  S
C1180      C1181   1.403       .  A
C1180      C1185   1.520       .  S
C1181      C1182   1.407       .  A
C1181      H1186   1.081       .  S
C1182      C1183   1.420       .  A
C1183      C1184   1.408       .  A
C1183      C1187   1.519       .  S
C1184      H1188   1.081   1_455  S
C1185      F1198   1.384       .  S
C1185      F1199   1.382   1_556  S
C1185      F1200   1.382   1_456  S
C1187      F1195   1.384       .  S
C1187      F1196   1.384       .  S
C1187      F1197   1.383   1_455  S
C1201      C1202   1.403       .  A
C1201      C1206   1.410       .  A
C1201      H1211   1.081       .  S
C1202      C1207   1.489       .  S
C1202      C1203   1.417       .  A
C1203      C1204   1.408       .  A
C1203      C1208   1.519       .  S
C1204      C1205   1.404       .  A
C1204      H1209   1.082       .  S
C1205      C1206   1.418       .  A
C1206      C1210   1.518       .  S
C1207      C1212   1.416       .  A
C1207      C1216   1.402       .  A
C1208      F1224   1.382       .  S
C1208      F1225   1.382       .  S
C1208      F1226   1.385       .  S
C1210      F1221   1.382       .  S
C1210      F1222   1.385       .  S
C1210      F1223   1.384       .  S
C1212      C1213   1.409       .  A
C1212      C1217   1.519       .  S
C1213      C1214   1.405       .  A
C1213      H1218   1.081       .  S
C1214      C1215   1.421       .  A
C1215      C1216   1.409       .  A
C1215      C1219   1.520       .  S
C1216      H1220   1.082       .  S
C1217      F1230   1.385       .  S
C1217      F1231   1.382       .  S
C1217      F1232   1.382       .  S
C1219      F1227   1.384       .  S
C1219      F1228   1.384       .  S
C1219      F1229   1.383       .  S
