geometry optimzed in LAMMPS
_audit_creation_date              2020-11-30 
_audit_creation_method            'lammps2cif' 
_symmetry_space_group_name_H-M    'P1' 
_symmetry_Int_Tables_number       1 
_symmetry_cell_setting            triclinic 
loop_ 
_symmetry_equiv_pos_as_xyz 
  x,y,z 
_cell_length_a                    32.59669368844574 
_cell_length_b                    33.01607454412517 
_cell_length_c                    27.298126053976993 
_cell_angle_alpha                 90.39907048288244 
_cell_angle_beta                  91.04561529652659 
_cell_angle_gamma                 89.56082184403932 
loop_ 
_atom_site_label 
_atom_site_type_symbol 
_atom_site_fract_x 
_atom_site_fract_y 
_atom_site_fract_z 
_atom_site_charge 
In1        In  0.70596651  0.58538668  0.12849692     1.36870
C2          C  0.66931543  0.51816919  0.15670746     0.77210
O3          O  0.66839077  0.61369298  0.18805935    -0.61230
O4          O  0.66608696  0.63995661  0.11713460    -0.52140
C5          C  0.77548010  0.62150851  0.15566262     0.69880
O6          O  0.75985696  0.59392554  0.18106539    -0.47000
C7          C  0.71365369  0.56441395  0.03471143     0.74580
O8          O  0.70730070  0.52363534  0.16466379    -0.58860
O9          O  0.68799578  0.59026908  0.04956091    -0.48950
O10         O  0.65131881  0.54680008  0.13477148    -0.55290
C11         C  0.65291724  0.64032344  0.16029962     0.84760
O12         O  0.75636635  0.62875201  0.11623482    -0.57180
O13         O  0.73592594  0.54928938  0.06835430    -0.60480
In14       In  0.93558384  0.80611285  0.23994644     1.36870
C15         C  0.00779482  0.83182354  0.20930835     0.77210
O16         O  0.90352841  0.84317417  0.18193358    -0.61230
O17         O  0.88433703  0.84939025  0.25571483    -0.52140
C18         C  0.89656539  0.73902711  0.21219262     0.69880
O19         O  0.92255901  0.75596386  0.18558041    -0.47000
C20         C  0.95828053  0.80431512  0.33400569     0.74580
O21         O  0.00122450  0.79476642  0.21678811    -0.58860
O22         O  0.93944630  0.83389610  0.31490599    -0.48950
O23         O  0.97691207  0.85433943  0.21414598    -0.55290
C24         C  0.88112488  0.86168881  0.21209582     0.84760
O25         O  0.89175964  0.75589268  0.25321709    -0.57180
O26         O  0.96425574  0.77488462  0.30525372    -0.60480
In27       In  0.26100817  0.58211247  0.74538063     1.36870
C28         C  0.29419924  0.51305764  0.71369266     0.77210
O29         O  0.29298309  0.61901103  0.68831977    -0.61230
O30         O  0.31556887  0.61946647  0.76220502    -0.52140
C31         C  0.19571068  0.62719530  0.72229484     0.69880
O32         O  0.20629790  0.59728598  0.69595386    -0.47000
C33         C  0.24681680  0.56172404  0.83764648     0.74580
O34         O  0.25641704  0.52076333  0.70667637    -0.58860
O35         O  0.27000240  0.59037090  0.82605439    -0.48950
O36         O  0.31383227  0.54090869  0.73489223    -0.55290
C37         C  0.31993030  0.63113801  0.71874961     0.84760
O38         O  0.21762108  0.63212194  0.76019010    -0.57180
O39         O  0.23034916  0.54364507  0.80152867    -0.60480
In40       In  0.03305392  0.80905071  0.63151433     1.36870
C41         C  0.96187262  0.83921967  0.66127400     0.77210
O42         O  0.06067293  0.85257681  0.68543138    -0.61230
O43         O  0.09012290  0.84456189  0.61724475    -0.52140
C44         C  0.07087830  0.74246019  0.66364200     0.69880
O45         O  0.05123647  0.76576816  0.69169454    -0.47000
C46         C  0.01166563  0.80407323  0.53729390     0.74580
O47         O  0.96912873  0.80153248  0.66182250    -0.58860
O48         O  0.03534727  0.83102743  0.55424043    -0.48950
O49         O  0.99105665  0.86042231  0.64681964    -0.55290
C50         C  0.08890245  0.86345275  0.65760629     0.84760
O51         O  0.06881131  0.75185197  0.61914031    -0.57180
O52         O  0.99949895  0.77924436  0.56869300    -0.60480
In53       In  0.25854809  0.48231840  0.12797313     1.36870
C54         C  0.29607251  0.54871364  0.16029783     0.77210
O55         O  0.29744414  0.44749216  0.18291986    -0.61230
O56         O  0.30295877  0.43451758  0.10685905    -0.52140
C57         C  0.19294004  0.44047322  0.15311137     0.69880
O58         O  0.20528535  0.47020987  0.17870689    -0.47000
C59         C  0.24439022  0.50896703  0.03780786     0.74580
O60         O  0.25840754  0.54278925  0.16815175    -0.58860
O61         O  0.26609653  0.47816349  0.04693463    -0.48950
O62         O  0.31385286  0.52006760  0.13836606    -0.55290
C63         C  0.31461424  0.42655126  0.15006193     0.84760
O64         O  0.21244142  0.43465888  0.11442029    -0.57180
O65         O  0.22850286  0.52563325  0.07464728    -0.60480
In66       In  0.03536838  0.25861420  0.24734283     1.36870
C67         C  0.96621537  0.22494334  0.21577726     0.77210
O68         O  0.06179937  0.21729130  0.18975320    -0.61230
O69         O  0.08286863  0.21143100  0.26368376    -0.52140
C70         C  0.07728049  0.32194982  0.21657039     0.69880
O71         O  0.04152965  0.31467303  0.20055230    -0.47000
C72         C  0.01241792  0.27442728  0.33880384     0.74580
O73         O  0.97707690  0.25946406  0.20108590    -0.58860
O74         O  0.04346615  0.25322356  0.32883666    -0.48950
O75         O  0.99104111  0.20799793  0.24517559    -0.55290
C76         C  0.08452205  0.19866541  0.22012480     0.84760
O77         O  0.09026538  0.29829859  0.24926769    -0.57180
O78         O  0.99430975  0.28949522  0.30196831    -0.60480
In79       In  0.70604463  0.48193891  0.74312283     1.36870
C80         C  0.67308986  0.55142517  0.71248411     0.77210
O81         O  0.66852565  0.44911679  0.68577723    -0.61230
O82         O  0.66214411  0.43270962  0.76045261    -0.52140
C83         C  0.77151733  0.44109675  0.71423823     0.69880
O84         O  0.75391872  0.46714511  0.68735681    -0.47000
C85         C  0.71654609  0.50616315  0.83506872     0.74580
O86         O  0.71128583  0.54474801  0.71068841    -0.58860
O87         O  0.68871742  0.48189618  0.82189609    -0.48950
O88         O  0.65256856  0.52211331  0.72757499    -0.55290
C89         C  0.65020076  0.42777258  0.71655529     0.84760
O90         O  0.75746017  0.43808210  0.75664862    -0.57180
O91         O  0.74021221  0.51697362  0.80160453    -0.60480
In92       In  0.93129608  0.25464525  0.62747231     1.36870
C93         C  0.00168837  0.22280161  0.65860206     0.77210
O94         O  0.90285768  0.21464040  0.68413465    -0.61230
O95         O  0.88292795  0.20909029  0.60987318    -0.52140
C96         C  0.88744832  0.31942314  0.65317581     0.69880
O97         O  0.91999882  0.30958696  0.67614140    -0.47000
C98         C  0.95625128  0.27073975  0.53736633     0.74580
O99         O  0.98975873  0.25736886  0.67312395    -0.58860
O100        O  0.92717273  0.24699735  0.54585219    -0.48950
O101        O  0.97686624  0.20451144  0.63041840    -0.55290
C102        C  0.87971184  0.19696852  0.65332550     0.84760
O103        O  0.87888999  0.29693887  0.61716280    -0.57180
O104        O  0.97188904  0.28722077  0.57499373    -0.60480
In105      In  0.43330030  0.75567982  0.12720694     1.36870
C106        C  0.50335071  0.72610362  0.16354574     0.77210
O107        O  0.39448964  0.72408883  0.18290943    -0.61230
O108        O  0.39615608  0.70078174  0.11006774    -0.52140
C109        C  0.39301586  0.82322338  0.15138584     0.69880
O110        O  0.42088540  0.80811827  0.17848488    -0.47000
C111        C  0.45564506  0.76891701  0.03522223     0.74580
O112        O  0.49447720  0.76336131  0.16665327    -0.58860
O113        O  0.42315198  0.75065449  0.04576178    -0.48950
O114        O  0.47618290  0.70463452  0.14317003    -0.55290
C115        C  0.38326266  0.69684845  0.15302569     0.84760
O116        O  0.38655168  0.80381797  0.11218311    -0.57180
O117        O  0.47648619  0.78066383  0.07192506    -0.60480
In118      In  0.20801546  0.98018450  0.24114435     1.36870
C119        C  0.17238398  0.04928469  0.21386149     0.77210
O120        O  0.16543779  0.95173696  0.18584620    -0.61230
O121        O  0.17231506  0.92387145  0.25539140    -0.52140
C122        C  0.27594837  0.94472425  0.20884061     0.69880
O123        O  0.25392702  0.96738859  0.18197898    -0.47000
C124        C  0.21592963  0.00087106  0.33491896     0.74580
O125        O  0.21058632  0.04348708  0.20951457    -0.58860
O126        O  0.19051372  0.97492080  0.31944338    -0.48950
O127        O  0.15335813  0.01960165  0.23066244    -0.55290
C128        C  0.15420212  0.92408194  0.21412205     0.84760
O129        O  0.26469947  0.94289862  0.25257488    -0.57180
O130        O  0.23810750  0.01580220  0.30228836    -0.60480
In131      In  0.43476840  0.30626313  0.74518747     1.36870
C132        C  0.50556269  0.33438501  0.71436557     0.77210
O133        O  0.40034266  0.34134257  0.68654808    -0.61230
O134        O  0.39658879  0.36072848  0.76098890    -0.52140
C135        C  0.38775619  0.24415668  0.71998943     0.69880
O136        O  0.42077893  0.25113327  0.69807365    -0.47000
C137        C  0.45735073  0.28876097  0.83668337     0.74580
O138        O  0.49352958  0.29921230  0.70270268    -0.58860
O139        O  0.42808808  0.31252979  0.82632614    -0.48950
O140        O  0.48084197  0.35484864  0.73953190    -0.55290
C141        C  0.38627487  0.36669436  0.71687808     0.84760
O142        O  0.38047355  0.26775598  0.75516442    -0.57180
O143        O  0.47490040  0.27344379  0.80011910    -0.60480
In144      In  0.20719000  0.08027754  0.62935254     1.36870
C145        C  0.18053462  0.00928230  0.66049319     0.77210
O146        O  0.16908082  0.10923500  0.68815200    -0.61230
O147        O  0.16097058  0.12879964  0.61431781    -0.52140
C148        C  0.27142027  0.12325681  0.65838251     0.69880
O149        O  0.26190144  0.09095927  0.67977830    -0.47000
C150        C  0.21217516  0.05861475  0.53540187     0.74580
O151        O  0.21840936  0.01625637  0.65676211    -0.58860
O152        O  0.18195712  0.07729946  0.55287078    -0.48950
O153        O  0.15758838  0.03909581  0.65127515    -0.55290
C154        C  0.14943567  0.13139588  0.65814861     0.84760
O155        O  0.24946365  0.13208594  0.62159601    -0.57180
O156        O  0.24111970  0.05254552  0.56579710    -0.60480
In157      In  0.53461198  0.30927913  0.12830424     1.36870
C158        C  0.46214844  0.33626143  0.15611625     0.77210
O159        O  0.56467812  0.34762699  0.18756407    -0.61230
O160        O  0.57118502  0.36404360  0.11280301    -0.52140
C161        C  0.58348776  0.24787609  0.15333449     0.69880
O162        O  0.54793423  0.25149813  0.17072252    -0.47000
C163        C  0.51427805  0.29002368  0.03646358     0.74580
O164        O  0.47870143  0.30572219  0.17637424    -0.58860
O165        O  0.54323339  0.31363099  0.04753147    -0.48950
O166        O  0.48314813  0.35297195  0.12386351    -0.55290
C167        C  0.57940275  0.37189066  0.15709393     0.84760
O168        O  0.59243727  0.27455775  0.12283968    -0.57180
O169        O  0.49648541  0.27495724  0.07264461    -0.60480
In170      In  0.76476698  0.08068195  0.24241705     1.36870
C171        C  0.79152285  0.00917121  0.21103444     0.77210
O172        O  0.80428818  0.10589503  0.18275136    -0.61230
O173        O  0.81182574  0.12771956  0.25595833    -0.52140
C174        C  0.70168274  0.12702394  0.21522539     0.69880
O175        O  0.70427711  0.09054241  0.20125439    -0.47000
C176        C  0.75495843  0.06215612  0.33643525     0.74580
O177        O  0.75625664  0.02233016  0.19899309    -0.58860
O178        O  0.78493664  0.08167849  0.32081905    -0.48950
O179        O  0.81269867  0.03312263  0.23683531    -0.55290
C180        C  0.82343194  0.12901792  0.21222101     0.84760
O181        O  0.73001360  0.13837627  0.24384007    -0.57180
O182        O  0.72878137  0.05295388  0.30373800    -0.60480
In183      In  0.53481917  0.75969664  0.74512215     1.36870
C184        C  0.46589605  0.72326974  0.71824792     0.77210
O185        O  0.56101385  0.71666322  0.68969568    -0.61230
O186        O  0.58842878  0.71850038  0.76089404    -0.52140
C187        C  0.57224849  0.82430814  0.71079546     0.69880
O188        O  0.54441496  0.80637230  0.68657551    -0.47000
C189        C  0.51247776  0.77423227  0.83673078     0.74580
O190        O  0.47225429  0.75995190  0.70757117    -0.58860
O191        O  0.54297651  0.75231773  0.82613896    -0.48950
O192        O  0.49476137  0.70628190  0.74179827    -0.55290
C193        C  0.58751022  0.70218069  0.71896351     0.84760
O194        O  0.57853541  0.81109184  0.75332697    -0.57180
O195        O  0.49385592  0.78961076  0.80033820    -0.60480
In196      In  0.75778430  0.98245329  0.62932497     1.36870
C197        C  0.78516081  0.05319424  0.66256320     0.77210
O198        O  0.79696210  0.95263779  0.68725763    -0.61230
O199        O  0.79922770  0.93008413  0.61389673    -0.52140
C200        C  0.69124746  0.94083613  0.65124155     0.69880
O201        O  0.70347936  0.97016392  0.67766318    -0.47000
C202        C  0.75464634  0.00674134  0.53675369     0.74580
O203        O  0.74727188  0.04687055  0.65560146    -0.58860
O204        O  0.78549406  0.98927049  0.55565452    -0.48950
O205        O  0.80767405  0.02246787  0.65722417    -0.55290
C206        C  0.81269241  0.92777908  0.65748007     0.84760
O207        O  0.71229164  0.93451840  0.61374603    -0.57180
O208        O  0.72449733  0.01034800  0.56472284    -0.60480
C209        C  0.59929452  0.89410008  0.71340924    -0.26690
C210        C  0.59814755  0.85598025  0.69034346    -0.14760
C211        C  0.62605138  0.84698531  0.65262701     0.35870
C212        C  0.65441030  0.87624788  0.63932905    -0.26130
C213        C  0.65675098  0.91392859  0.66342806    -0.15370
C214        C  0.62808753  0.92344501  0.69998268     0.36960
N215        N  0.62859993  0.96242408  0.72372012    -0.89620
H216        H  0.57814526  0.90064122  0.74265659     0.18070
H217        H  0.67622755  0.86844641  0.61122626     0.18060
N218        N  0.62820077  0.80805168  0.62861996    -0.88650
H219        H  0.60579107  0.96427467  0.75010007     0.35440
H220        H  0.62110982  0.98407892  0.69718797     0.40540
H221        H  0.60640579  0.78789279  0.64118196     0.40160
H222        H  0.65685861  0.79524651  0.63722395     0.35040
C223        C  0.78729257  0.05557997  0.41878070    -0.26690
C224        C  0.75245377  0.05003025  0.38849160    -0.14760
C225        C  0.71731768  0.03170705  0.40807498     0.35870
C226        C  0.71852672  0.01817033  0.45693458    -0.26130
C227        C  0.75413072  0.02224077  0.48620596    -0.15370
C228        C  0.78857583  0.04184796  0.46697140     0.36960
N229        N  0.82498469  0.04919592  0.49580091    -0.89620
H230        H  0.81432864  0.07005706  0.40468649     0.18070
H231        H  0.69184864  0.00373218  0.47198753     0.18060
N232        N  0.68076764  0.02664456  0.37848415    -0.88650
H233        H  0.83824212  0.02145386  0.50562828     0.35440
H234        H  0.81688349  0.06505353  0.52752950     0.40540
H235        H  0.66914780  0.05553146  0.37063698     0.40160
H236        H  0.65817652  0.01184085  0.39816349     0.35040
C237        C  0.59980152  0.17716496  0.18038453    -0.26690
C238        C  0.61331563  0.21607523  0.16802450    -0.14760
C239        C  0.65572822  0.22470401  0.17028377     0.35870
C240        C  0.68338755  0.19476487  0.18598731    -0.26130
C241        C  0.67014491  0.15592096  0.19786990    -0.15370
C242        C  0.62804333  0.14666299  0.19473721     0.36960
N243        N  0.61415502  0.10688049  0.20707087    -0.89620
H244        H  0.56730550  0.17054232  0.17849878     0.18070
H245        H  0.71584064  0.20166562  0.18835911     0.18060
N246        N  0.67064685  0.26422825  0.15821130    -0.88650
H247        H  0.58227639  0.10509443  0.20279891     0.35440
H248        H  0.62078129  0.10235911  0.24426293     0.40540
H249        H  0.66819540  0.26724985  0.12018029     0.40160
H250        H  0.70192228  0.26664615  0.16684509     0.35040
C251        C  0.51366690  0.28355116  0.89785346    -0.26690
C252        C  0.47141588  0.28149880  0.88751271    -0.14760
C253        C  0.44377143  0.27702232  0.92651821     0.35870
C254        C  0.45889209  0.27764979  0.97487201    -0.26130
C255        C  0.50083779  0.28274383  0.98526638    -0.15370
C256        C  0.52869547  0.28444117  0.94640645     0.36960
N257        N  0.57198592  0.28792979  0.95640797    -0.89620
H258        H  0.53486824  0.28659757  0.86798405     0.18070
H259        H  0.43740753  0.27568729  0.00459865     0.18060
N260        N  0.40046889  0.27125060  0.91869782    -0.88650
H261        H  0.58821144  0.28920790  0.92377013     0.35440
H262        H  0.58160834  0.26147960  0.97421092     0.40540
H263        H  0.39294645  0.26628311  0.88185420     0.40160
H264        H  0.38540990  0.29766871  0.93004674     0.35040
C265        C  0.28879703  0.18774352  0.69676431    -0.26690
C266        C  0.30291253  0.15119549  0.67686931    -0.14760
C267        C  0.34551771  0.14459407  0.67130840     0.35870
C268        C  0.37293426  0.17544292  0.68525324    -0.26130
C269        C  0.35863741  0.21213267  0.70522948    -0.15370
C270        C  0.31606356  0.21831420  0.71100791     0.36960
N271        N  0.30051099  0.25610145  0.72993246    -0.89620
H272        H  0.25605058  0.19276369  0.70024710     0.18070
H273        H  0.40557055  0.17064899  0.68066400     0.18060
N274        N  0.36188751  0.10791747  0.65043496    -0.88650
H275        H  0.26854154  0.25546377  0.73230350     0.35440
H276        H  0.30730202  0.27867117  0.70470305     0.40540
H277        H  0.33870966  0.08750456  0.64104710     0.40160
H278        H  0.38011246  0.09392379  0.67740932     0.35040
C279        C  0.17932925  0.01937921  0.40966955    -0.26690
C280        C  0.21714209  0.01430863  0.38666853    -0.14760
C281        C  0.25382780  0.02329827  0.41325343     0.35870
C282        C  0.25122217  0.03834066  0.46141696    -0.26130
C283        C  0.21319654  0.04418363  0.48393530    -0.15370
C284        C  0.17686745  0.03427231  0.45746759     0.36960
N285        N  0.13696816  0.03804690  0.47827274    -0.89620
H286        H  0.15108530  0.01239245  0.38987577     0.18070
H287        H  0.27930544  0.04522307  0.48155472     0.18060
N288        N  0.29403569  0.01664534  0.39365135    -0.88650
H289        H  0.13120496  0.06853065  0.48627083     0.35440
H290        H  0.13637563  0.02117472  0.51052355     0.40540
H291        H  0.29272623  0.00217288  0.35964927     0.40160
H292        H  0.30959028  0.99642503  0.41687351     0.35040
C293        C  0.45616175  0.77555962  0.89607869    -0.26690
C294        C  0.49828017  0.77930781  0.88750502    -0.14760
C295        C  0.52581914  0.78359356  0.92789623     0.35870
C296        C  0.51086162  0.78123907  0.97557688    -0.26130
C297        C  0.46904788  0.77501459  0.98420637    -0.15370
C298        C  0.44119583  0.77337115  0.94398859     0.36960
N299        N  0.39796116  0.76900094  0.95180657    -0.89620
H300        H  0.43499414  0.77263967  0.86518865     0.18070
H301        H  0.53239921  0.78352998  0.00617516     0.18060
N302        N  0.56881027  0.79131203  0.92223543    -0.88650
H303        H  0.38183948  0.76769515  0.91837165     0.35440
H304        H  0.38778532  0.79514856  0.96984624     0.40540
H305        H  0.57598957  0.79789496  0.88608913     0.40160
H306        H  0.58496933  0.76513357  0.93241629     0.35040
C307        C  0.34115670  0.90727086  0.22416831    -0.26690
C308        C  0.31036668  0.91968632  0.19076256    -0.14760
C309        C  0.31005378  0.90371124  0.14269479     0.35870
C310        C  0.33915073  0.87403100  0.13005481    -0.26130
C311        C  0.36825350  0.85952091  0.16446004    -0.15370
C312        C  0.37042502  0.87769416  0.21144097     0.36960
N313        N  0.40114785  0.86510554  0.24670208    -0.89620
H314        H  0.34161605  0.91987214  0.26093774     0.18070
H315        H  0.33771656  0.86074510  0.09366858     0.18060
N316        N  0.27885137  0.91578471  0.10771279    -0.88650
H317        H  0.39745009  0.88048985  0.27995964     0.35440
H318        H  0.42963227  0.87381941  0.23346308     0.40540
H319        H  0.25077469  0.90510347  0.12007118     0.40160
H320        H  0.28362593  0.90181795  0.07377498     0.35040
C321        C  0.11498593  0.19798955  0.65768721    -0.26690
C322        C  0.11431804  0.15722535  0.67170637    -0.14760
C323        C  0.07747352  0.14073820  0.68950275     0.35870
C324        C  0.04180657  0.16466654  0.68900606    -0.26130
C325        C  0.04179032  0.20449347  0.67148578    -0.15370
C326        C  0.07934520  0.22202685  0.65756815     0.36960
N327        N  0.08220645  0.26258770  0.63910519    -0.89620
H328        H  0.14306668  0.21064919  0.64384117     0.18070
H329        H  0.01312779  0.15111654  0.69965084     0.18060
N330        N  0.07403557  0.09939162  0.70516964    -0.88650
H331        H  0.10139723  0.27881013  0.66312025     0.35440
H332        H  0.05402801  0.27764180  0.63863016     0.40540
H333        H  0.10200587  0.08400588  0.70501662     0.40160
H334        H  0.05465032  0.08442027  0.68017759     0.35040
C335        C  0.84066635  0.09622944  0.69725130    -0.26690
C336        C  0.80329139  0.09358796  0.67096436    -0.14760
C337        C  0.78856674  0.12760300  0.64479388     0.35870
C338        C  0.81306285  0.16235877  0.64245986    -0.26130
C339        C  0.85169428  0.16385266  0.66586238    -0.15370
C340        C  0.86490163  0.13123792  0.69540058     0.36960
N341        N  0.90424904  0.13240346  0.72002271    -0.89620
H342        H  0.85201788  0.07003063  0.71716007     0.18070
H343        H  0.80294478  0.18766141  0.62009567     0.18060
N344        N  0.75038756  0.12576135  0.61765693    -0.88650
H345        H  0.91025536  0.10508509  0.73802810     0.35440
H346        H  0.90271265  0.15471333  0.74729767     0.40540
H347        H  0.75413833  0.10500751  0.58893785     0.40160
H348        H  0.74366151  0.15366843  0.60138561     0.35040
C349        C  0.67534384  0.62669175  0.71246077    -0.26690
C350        C  0.65353599  0.59104720  0.70201708    -0.14760
C351        C  0.61135513  0.59359862  0.68941480     0.35870
C352        C  0.59121524  0.63123971  0.69160396    -0.26130
C353        C  0.61215055  0.66607168  0.70702602    -0.15370
C354        C  0.65484417  0.66427616  0.71584427     0.36960
N355        N  0.67708399  0.70042631  0.72840143    -0.89620
H356        H  0.70778625  0.62482284  0.72160317     0.18070
H357        H  0.55843663  0.63295196  0.68431873     0.18060
N358        N  0.58880595  0.55772981  0.67634567    -0.88650
H359        H  0.70849266  0.69410863  0.73166515     0.35440
H360        H  0.66772954  0.71001622  0.76302990     0.40540
H361        H  0.60081898  0.54650969  0.64365609     0.40160
H362        H  0.55796099  0.56473217  0.66907788     0.35040
C363        C  0.84358517  0.41542199  0.71151084    -0.26690
C364        C  0.80247154  0.41263412  0.69593360    -0.14760
C365        C  0.78974874  0.38011739  0.66599598     0.35870
C366        C  0.81854263  0.35091039  0.65169167    -0.26130
C367        C  0.85973751  0.35301274  0.66751094    -0.15370
C368        C  0.87264039  0.38598154  0.69711459     0.36960
N369        N  0.91491827  0.38952345  0.71224782    -0.89620
H370        H  0.85288410  0.44042589  0.73500581     0.18070
H371        H  0.80835847  0.32558822  0.62924617     0.18060
N372        N  0.74729665  0.37635446  0.65134380    -0.88650
H373        H  0.91914254  0.41536630  0.73406192     0.35440
H374        H  0.93208222  0.39378483  0.68073033     0.40540
H375        H  0.73035305  0.37156340  0.68292691     0.40160
H376        H  0.74300663  0.35079472  0.62906297     0.35040
C377        C  0.61734399  0.36128209  0.72422360    -0.26690
C378        C  0.61635014  0.40006431  0.70351876    -0.14760
C379        C  0.58033201  0.41321388  0.67806522     0.35870
C380        C  0.54563662  0.38844703  0.67768921    -0.26130
C381        C  0.54569360  0.35116218  0.70188943    -0.15370
C382        C  0.58262552  0.33649167  0.72358370     0.36960
N383        N  0.58535446  0.29846973  0.74889190    -0.89620
H384        H  0.64479127  0.35101918  0.74361510     0.18070
H385        H  0.51730539  0.39983624  0.66128832     0.18060
N386        N  0.57633700  0.45227201  0.65530597    -0.88650
H387        H  0.60697657  0.28048906  0.73087474     0.35440
H388        H  0.55784065  0.28263885  0.74704584     0.40540
H389        H  0.60324972  0.46891191  0.65735457     0.40160
H390        H  0.55429606  0.46887981  0.67444823     0.35040
C391        C  0.85420919  0.19661103  0.21122740    -0.26690
C392        C  0.85736193  0.15550772  0.19836537    -0.14760
C393        C  0.89550776  0.13975168  0.18282163     0.35870
C394        C  0.93000275  0.16482429  0.18457121    -0.26130
C395        C  0.92749417  0.20504965  0.20133574    -0.15370
C396        C  0.88865587  0.22173744  0.21282073     0.36960
N397        N  0.88321894  0.26254599  0.23047056    -0.89620
H398        H  0.82506779  0.20868527  0.22344741     0.18070
H399        H  0.95968123  0.15193928  0.17568663     0.18060
N400        N  0.90126050  0.09812842  0.16836287    -0.88650
H401        H  0.86426948  0.27771269  0.20518552     0.35440
H402        H  0.91067467  0.27842941  0.23233065     0.40540
H403        H  0.87389218  0.08204054  0.16782974     0.40160
H404        H  0.92052133  0.08440533  0.19452708     0.35040
C405        C  0.94255027  0.27922273  0.44836332    -0.26690
C406        C  0.97115852  0.27746302  0.48731810    -0.14760
C407        C  0.01349294  0.27829664  0.47742422     0.35870
C408        C  0.02626120  0.27855714  0.42848944    -0.26130
C409        C  0.99764905  0.27916990  0.38943552    -0.15370
C410        C  0.95529772  0.28040230  0.39946777     0.36960
N411        N  0.92537460  0.28097212  0.36008976    -0.89620
H412        H  0.91007211  0.27864527  0.45613424     0.18070
H413        H  0.05874078  0.27759537  0.42071948     0.18060
N414        N  0.04332639  0.27637790  0.51681604    -0.88650
H415        H  0.89565556  0.28237840  0.37381750     0.35440
H416        H  0.92769775  0.25343713  0.34113655     0.40540
H417        H  0.04151345  0.30362668  0.53640704     0.40160
H418        H  0.07303749  0.27481480  0.50308647     0.35040
C419        C  0.17281223  0.12460349  0.20957422    -0.26690
C420        C  0.15122909  0.08819508  0.20360718    -0.14760
C421        C  0.10833166  0.08950304  0.19477736     0.35870
C422        C  0.08755767  0.12684878  0.19644246    -0.26130
C423        C  0.10868950  0.16260816  0.20720488    -0.15370
C424        C  0.15176184  0.16192956  0.21216196     0.36960
N425        N  0.17377361  0.19899073  0.22043798    -0.89620
H426        H  0.20573718  0.12370911  0.21572227     0.18070
H427        H  0.05441362  0.12778204  0.19233122     0.18060
N428        N  0.08582571  0.05277248  0.18604749    -0.88650
H429        H  0.20537348  0.19334800  0.22208896     0.35440
H430        H  0.16573329  0.21032683  0.25482161     0.40540
H431        H  0.09603431  0.04024098  0.15312882     0.40160
H432        H  0.05453011  0.05898771  0.18104465     0.35040
C433        C  0.29583399  0.62383981  0.17117273    -0.26690
C434        C  0.31772517  0.58700093  0.17172272    -0.14760
C435        C  0.36102945  0.58762433  0.17509058     0.35870
C436        C  0.38150469  0.62470435  0.17234579    -0.26130
C437        C  0.35971425  0.66113958  0.16716453    -0.15370
C438        C  0.31636756  0.66105276  0.16867057     0.36960
N439        N  0.29230293  0.69766020  0.16570729    -0.89620
H440        H  0.26260220  0.62367464  0.16917951     0.18070
H441        H  0.41476376  0.62505613  0.17189590     0.18060
N442        N  0.38410026  0.55045515  0.17921641    -0.88650
H443        H  0.27559336  0.69684100  0.13266336     0.35440
H444        H  0.31080335  0.72330308  0.16483839     0.40540
H445        H  0.37677490  0.53729106  0.21263623     0.40160
H446        H  0.41560360  0.55620239  0.18069164     0.35040
C447        C  0.09788325  0.39396625  0.20898271    -0.26690
C448        C  0.10390092  0.35307429  0.19630324    -0.14760
C449        C  0.13822986  0.34165149  0.16834387     0.35870
C450        C  0.16576135  0.37126137  0.15409812    -0.26130
C451        C  0.16068864  0.41201760  0.16772597    -0.15370
C452        C  0.12622108  0.42371591  0.19508455     0.36960
N453        N  0.12016465  0.46544286  0.20856045    -0.89620
H454        H  0.07172424  0.40244799  0.23084447     0.18070
H455        H  0.19216780  0.36196300  0.13307358     0.18060
N456        N  0.14623738  0.30044012  0.15351520    -0.88650
H457        H  0.09340565  0.46887094  0.22877451     0.35440
H458        H  0.11556672  0.48182620  0.17625572     0.40540
H459        H  0.12293716  0.28077752  0.16334167     0.40160
H460        H  0.17303649  0.29079636  0.17171657     0.35040
C461        C  0.37589196  0.40336635  0.19840331    -0.26690
C462        C  0.34733134  0.39641540  0.16014589    -0.14760
C463        C  0.35350302  0.36365115  0.12755743     0.35870
C464        C  0.39012718  0.34124682  0.13063420    -0.26130
C465        C  0.42044801  0.35082481  0.16564261    -0.15370
C466        C  0.41293825  0.38113162  0.20099292     0.36960
N467        N  0.44374256  0.39057936  0.23757227    -0.89620
H468        H  0.37091000  0.42827363  0.22371503     0.18070
H469        H  0.39630518  0.31799520  0.10344128     0.18060
N470        N  0.32335517  0.35446154  0.09007409    -0.88650
H471        H  0.43330765  0.41353338  0.26091768     0.35440
H472        H  0.46916156  0.40215762  0.21968179     0.40540
H473        H  0.29665480  0.34551584  0.10755004     0.40160
H474        H  0.33286715  0.32981433  0.06874542     0.35040
C475        C  0.88568806  0.83838534  0.65828584    -0.26690
C476        C  0.92196287  0.85785923  0.67314564    -0.14760
C477        C  0.92002750  0.89782141  0.69180665     0.35870
C478        C  0.88238400  0.91870499  0.69103597    -0.26130
C479        C  0.84703824  0.90073213  0.67101626    -0.15370
C480        C  0.84817996  0.85950109  0.65658130     0.36960
N481        N  0.81221331  0.83837724  0.63949457    -0.89620
H482        H  0.88691397  0.80751050  0.64460877     0.18070
H483        H  0.88134309  0.95022286  0.70240779     0.18060
N484        N  0.95668640  0.91768027  0.70913974    -0.88650
H485        H  0.81583821  0.83196360  0.60226244     0.35440
H486        H  0.78576127  0.85614186  0.64281003     0.40540
H487        H  0.96757186  0.90193067  0.73988309     0.40160
H488        H  0.95011236  0.94719929  0.72088010     0.35040
C489        C  0.12401287  0.96850257  0.69234021    -0.26690
C490        C  0.16287670  0.96931971  0.67112059    -0.14760
C491        C  0.18009282  0.93310181  0.65259008     0.35870
C492        C  0.15634154  0.89765733  0.65165006    -0.26130
C493        C  0.11618680  0.89779561  0.66936617    -0.15370
C494        C  0.10054866  0.93309301  0.69204934     0.36960
N495        N  0.05962850  0.93392784  0.71091604    -0.89620
H496        H  0.11094994  0.99628451  0.70688484     0.18070
H497        H  0.16837334  0.87036998  0.63472228     0.18060
N498        N  0.22032670  0.93294645  0.63188637    -0.88650
H499        H  0.05184495  0.96302669  0.72313173     0.35440
H500        H  0.05951730  0.91540096  0.74180690     0.40540
H501        H  0.21891350  0.95034272  0.60002952     0.40160
H502        H  0.22868005  0.90364766  0.62098288     0.35040
C503        C  0.35773049  0.47517930  0.69537373    -0.26690
C504        C  0.31498306  0.47436287  0.70134855    -0.14760
C505        C  0.29498248  0.43661368  0.70362304     0.35870
C506        C  0.31874394  0.40072224  0.70426031    -0.26130
C507        C  0.36167963  0.40224875  0.70265666    -0.15370
C508        C  0.38127544  0.43949989  0.69619718     0.36960
N509        N  0.42528788  0.44107535  0.69390551    -0.89620
H510        H  0.37317246  0.50401628  0.69300029     0.18070
H511        H  0.30402324  0.37176954  0.70936159     0.18060
N512        N  0.25121470  0.43484921  0.70855250    -0.88650
H513        H  0.43507693  0.47096431  0.69017083     0.35440
H514        H  0.43404089  0.42560167  0.66217777     0.40540
H515        H  0.24406161  0.44705715  0.74282261     0.40160
H516        H  0.24146037  0.40475311  0.70875303     0.35040
C517        C  0.25980788  0.57354770  0.92657530    -0.26690
C518        C  0.24095607  0.55002899  0.88946267    -0.14760
C519        C  0.21943669  0.51472883  0.90252617     0.35870
C520        C  0.21999495  0.50228359  0.95172647    -0.26130
C521        C  0.24013189  0.52515486  0.98806550    -0.15370
C522        C  0.25958115  0.56145495  0.97575959     0.36960
N523        N  0.28026657  0.58508614  0.01302823    -0.89620
H524        H  0.27591865  0.60089351  0.91707766     0.18070
H525        H  0.20505110  0.47441106  0.96178327     0.18060
N526        N  0.19806302  0.49106268  0.86592752    -0.88650
H527        H  0.29297681  0.61105488  0.99792855     0.35440
H528        H  0.30480948  0.56776462  0.02681313     0.40540
H529        H  0.17349886  0.50865014  0.85272799     0.40160
H530        H  0.18517354  0.46539600  0.88154259     0.35040
C531        C  0.13312167  0.64495166  0.67227472    -0.26690
C532        C  0.16132776  0.65524359  0.70979460    -0.14760
C533        C  0.15703097  0.69301649  0.73429690     0.35870
C534        C  0.12487349  0.71927028  0.72075640    -0.26130
C535        C  0.09812767  0.70986089  0.68179193    -0.15370
C536        C  0.10180811  0.67215570  0.65753755     0.36960
N537        N  0.07341644  0.66132338  0.61879195    -0.89620
H538        H  0.13603370  0.61599740  0.65369633     0.18070
H539        H  0.12234476  0.74858497  0.73864629     0.18060
N540        N  0.18622190  0.70555491  0.77145320    -0.88650
H541        H  0.07882732  0.63159243  0.60699787     0.35440
H542        H  0.07920932  0.67979605  0.58881931     0.40540
H543        H  0.21418366  0.71024809  0.75425294     0.40160
H544        H  0.17775509  0.73345375  0.78672539     0.35040
C545        C  0.43001715  0.65850050  0.70610447    -0.26690
C546        C  0.42778228  0.70100286  0.70636004    -0.14760
C547        C  0.38909032  0.72035156  0.70139178     0.35870
C548        C  0.35330397  0.69661183  0.70075293    -0.26130
C549        C  0.35597833  0.65442157  0.70520760    -0.15370
C550        C  0.39448230  0.63504903  0.70575121     0.36960
N551        N  0.39718360  0.59162566  0.70867247    -0.89620
H552        H  0.45965642  0.64347978  0.70871000     0.18070
H553        H  0.32337479  0.71113812  0.70039083     0.18060
N554        N  0.38604390  0.76377308  0.70003418    -0.88650
H555        H  0.42783273  0.58203689  0.70967942     0.35440
H556        H  0.38415573  0.57978555  0.67640521     0.40540
H557        H  0.39561217  0.77484838  0.73431822     0.40160
H558        H  0.35545190  0.77290464  0.69526092     0.35040
C559        C  0.04989157  0.88596156  0.17439964    -0.26690
C560        C  0.04845017  0.84914866  0.19968368    -0.14760
C561        C  0.08440285  0.83394517  0.22279851     0.35870
C562        C  0.12002755  0.85773129  0.22373356    -0.26130
C563        C  0.12035178  0.89608259  0.20188428    -0.15370
C564        C  0.08554991  0.90950497  0.17485825     0.36960
N565        N  0.08528726  0.94841555  0.15148698    -0.89620
H566        H  0.02230398  0.89747443  0.15642118     0.18070
H567        H  0.14693753  0.84734385  0.24403525     0.18060
N568        N  0.08391289  0.79594842  0.24818411    -0.88650
H569        H  0.05640173  0.95479862  0.13599816     0.35440
H570        H  0.10561867  0.94671112  0.12235859     0.40540
H571        H  0.06497448  0.79949091  0.27845029     0.40160
H572        H  0.11314507  0.78882087  0.26215593     0.35040
C573        C  0.97510099  0.76760001  0.41118982    -0.26690
C574        C  0.97256823  0.80432386  0.38571267    -0.14920
C575        C  0.98408474  0.84058638  0.40978690     0.35870
C576        C  0.99702871  0.83940143  0.45911835    -0.26130
C577        C  0.99850341  0.80286055  0.48510146    -0.15370
C578        C  0.98742998  0.76650658  0.46058247     0.36960
N579        N  0.98912300  0.72798271  0.48438031    -0.89620
H580        H  0.96670607  0.73957229  0.39282758     0.18070
H581        H  0.00565150  0.86732547  0.47754954     0.18060
N582        N  0.98323904  0.87838676  0.38390935    -0.88650
H583        H  0.96826670  0.72816793  0.51298761     0.35440
H584        H  0.01876062  0.72348107  0.49871400     0.40540
H585        H  0.00508976  0.87647243  0.35639215     0.40160
H586        H  0.99223866  0.90220189  0.40705292     0.35040
C587        C  0.81421193  0.89700235  0.21483388    -0.26690
C588        C  0.85488828  0.89669236  0.19886798    -0.14760
C589        C  0.87124439  0.93243499  0.17851720     0.35870
C590        C  0.84741187  0.96786187  0.17820591    -0.26130
C591        C  0.80797318  0.96895789  0.19778047    -0.15370
C592        C  0.79032933  0.93254000  0.21429427     0.36960
N593        N  0.74997036  0.93083606  0.23457221    -0.89620
H594        H  0.80158790  0.86981182  0.23050923     0.18070
H595        H  0.86108055  0.99570929  0.16567514     0.18060
N596        N  0.91256723  0.93524641  0.16118726    -0.88650
H597        H  0.73250085  0.91129078  0.21244188     0.35440
H598        H  0.73502956  0.95881096  0.23359813     0.40540
H599        H  0.92831309  0.90777724  0.16243793     0.40160
H600        H  0.92853958  0.95514283  0.18446474     0.35040
C601        C  0.66828899  0.44366128  0.17102993    -0.26690
C602        C  0.64715174  0.48083250  0.16935646    -0.14760
C603        C  0.60395648  0.48136149  0.17362606     0.35870
C604        C  0.58261005  0.44465419  0.17402523    -0.26130
C605        C  0.60350698  0.40762667  0.17100802    -0.15370
C606        C  0.64690795  0.40692144  0.17159232     0.36960
N607        N  0.67009249  0.36971587  0.17099857    -0.89620
H608        H  0.70143949  0.44299567  0.16868306     0.18070
H609        H  0.54933925  0.44493999  0.17384550     0.18060
N610        N  0.58179949  0.51916749  0.17557266    -0.88650
H611        H  0.68485634  0.36775338  0.13737762     0.35440
H612        H  0.65102849  0.34458258  0.17331133     0.40540
H613        H  0.59082144  0.53406834  0.20788446     0.40160
H614        H  0.55025994  0.51419556  0.17798951     0.35040
C615        C  0.69162185  0.55310378  0.89784376    -0.26690
C616        C  0.71932702  0.52239093  0.88519993    -0.14760
C617        C  0.74707667  0.50702085  0.92095188     0.35870
C618        C  0.74529784  0.52199388  0.96913580    -0.26130
C619        C  0.71668882  0.55209461  0.98240752    -0.15370
C620        C  0.69030093  0.56862313  0.94578242     0.36960
N621        N  0.66182625  0.60064158  0.95724853    -0.89620
H622        H  0.67071052  0.56495157  0.87001049     0.18070
H623        H  0.76607665  0.50940166  0.99657447     0.18060
N624        N  0.77692785  0.47608936  0.91006172    -0.88650
H625        H  0.64365597  0.60804073  0.92658931     0.35440
H626        H  0.67900694  0.62644388  0.96578313     0.40540
H627        H  0.77578141  0.46756234  0.87318038     0.40160
H628        H  0.76956512  0.45041019  0.93020112     0.35040
C629        C  0.83246453  0.66701951  0.13446310    -0.26690
C630        C  0.81187275  0.64548600  0.17070050    -0.14760
C631        C  0.82349475  0.65103664  0.22033959     0.35870
C632        C  0.85339912  0.68004149  0.23266942    -0.26130
C633        C  0.87188031  0.70357147  0.19657943    -0.15370
C634        C  0.86252452  0.69577789  0.14674507     0.36960
N635        N  0.88157338  0.71869711  0.10889348    -0.89620
H636        H  0.82403388  0.66240208  0.09625934     0.18070
H637        H  0.86097444  0.68560659  0.27093164     0.18060
N638        N  0.80360133  0.62890119  0.25823452    -0.88650
H639        H  0.86946736  0.71078002  0.07443648     0.35440
H640        H  0.91257435  0.71036653  0.10860925     0.40540
H641        H  0.77312688  0.63893138  0.25933560     0.40160
H642        H  0.81669232  0.63574191  0.29252790     0.35040
C643        C  0.58466919  0.64876520  0.19564146    -0.26690
C644        C  0.61896578  0.66704873  0.17516247    -0.14760
C645        C  0.61677012  0.70828906  0.16155854     0.35870
C646        C  0.57891184  0.72866053  0.16334468    -0.26130
C647        C  0.54344630  0.70872724  0.17823325    -0.15370
C648        C  0.54686802  0.66903140  0.19727759     0.36960
N649        N  0.51257165  0.64801193  0.21724587    -0.89620
H650        H  0.58638617  0.61739985  0.20707880     0.18070
H651        H  0.57664273  0.75924776  0.14930885     0.18060
N652        N  0.65171698  0.72987415  0.14411264    -0.88650
H653        H  0.50427806  0.62494429  0.19264865     0.35440
H654        H  0.48718596  0.66709330  0.22147943     0.40540
H655        H  0.67843711  0.71237139  0.14702313     0.40160
H656        H  0.65643102  0.75466906  0.16752817     0.35040
loop_ 
_geom_bond_atom_site_label_1 
_geom_bond_atom_site_label_2 
_geom_bond_distance 
_geom_bond_site_symmetry_2 
_ccdc_geom_bond_type 
In1           O3   2.248       .  S
In1           O4   2.234       .  S
In1          O12   2.219       .  S
In1           O6   2.266       .  S
In1           O8   2.271       .  S
In1           O9   2.229       .  S
In1          O10   2.208       .  S
In1          O13   2.255       .  S
C2            O8   1.267       .  A
C2           O10   1.258       .  A
C2          C602   1.480       .  S
O3           C11   1.261       .  A
O4           C11   1.261       .  A
C5           O12   1.257       .  A
C5            O6   1.264       .  A
C5          C630   1.481       .  S
C7            O9   1.261       .  A
C7           O13   1.263       .  A
C7          C619   1.487   1_554  S
C11         C644   1.471       .  S
In14         O16   2.246       .  S
In14         O17   2.236       .  S
In14         O25   2.233       .  S
In14         O19   2.253       .  S
In14         O21   2.270   1_655  S
In14         O22   2.238       .  S
In14         O23   2.220       .  S
In14         O26   2.251       .  S
C15          O21   1.262       .  A
C15          O23   1.255   1_455  A
C15         C560   1.476       .  S
O16          C24   1.262       .  A
O17          C24   1.263       .  A
C18          O25   1.259       .  A
C18          O19   1.262       .  A
C18         C633   1.481       .  S
C20          O22   1.260       .  A
C20          O26   1.261       .  A
C20         C574   1.478       .  S
C24         C588   1.475       .  S
In27         O29   2.259       .  S
In27         O30   2.212       .  S
In27         O38   2.206       .  S
In27         O32   2.272       .  S
In27         O34   2.283       .  S
In27         O35   2.231       .  S
In27         O36   2.208       .  S
In27         O39   2.250       .  S
C28          O34   1.267       .  A
C28          O36   1.256       .  A
C28         C504   1.481       .  S
O29          C37   1.263       .  A
O30          C37   1.261       .  A
C31          O38   1.257       .  A
C31          O32   1.267       .  A
C31         C532   1.485       .  S
C33          O35   1.261       .  A
C33          O39   1.263       .  A
C33         C518   1.485       .  S
C37         C549   1.464       .  S
In40         O42   2.232       .  S
In40         O43   2.248       .  S
In40         O51   2.238       .  S
In40         O45   2.253       .  S
In40         O47   2.272   1_455  S
In40         O48   2.238       .  S
In40         O49   2.214   1_455  S
In40         O52   2.243   1_455  S
C41          O47   1.265       .  A
C41          O49   1.256       .  A
C41         C476   1.475       .  S
O42          C50   1.260       .  A
O43          C50   1.263       .  A
C44          O51   1.256       .  A
C44          O45   1.261       .  A
C44         C535   1.473       .  S
C46          O48   1.262       .  A
C46          O52   1.261   1_455  A
C46         C577   1.481   1_455  S
C50         C493   1.476       .  S
In53         O55   2.261       .  S
In53         O56   2.214       .  S
In53         O64   2.209       .  S
In53         O58   2.280       .  S
In53         O60   2.271       .  S
In53         O61   2.233       .  S
In53         O62   2.212       .  S
In53         O65   2.254       .  S
C54          O60   1.267       .  A
C54          O62   1.259       .  A
C54         C434   1.481       .  S
O55          C63   1.265       .  A
O56          C63   1.261       .  A
C57          O64   1.256       .  A
C57          O58   1.265       .  A
C57         C451   1.477       .  S
C59          O61   1.258       .  A
C59          O65   1.261       .  A
C59         C521   1.467   1_554  S
C63         C462   1.476       .  S
In66         O68   2.253       .  S
In66         O69   2.229       .  S
In66         O77   2.226       .  S
In66         O71   2.268       .  S
In66         O73   2.262   1_455  S
In66         O74   2.244       .  S
In66         O75   2.217   1_455  S
In66         O78   2.255   1_455  S
C67          O73   1.266       .  A
C67          O75   1.260       .  A
C67         C395   1.473       .  S
O68          C76   1.262       .  A
O69          C76   1.261       .  A
C70          O77   1.256       .  A
C70          O71   1.261       .  A
C70         C448   1.468       .  S
C72          O74   1.259       .  A
C72          O78   1.260   1_455  A
C72         C409   1.479   1_455  S
C76         C423   1.467       .  S
In79         O81   2.247       .  S
In79         O82   2.233       .  S
In79         O90   2.234       .  S
In79         O84   2.249       .  S
In79         O86   2.269       .  S
In79         O87   2.233       .  S
In79         O88   2.219       .  S
In79         O91   2.249       .  S
C80          O86   1.265       .  A
C80          O88   1.257       .  A
C80         C350   1.478       .  S
O81          C89   1.262       .  A
O82          C89   1.263       .  A
C83          O90   1.258       .  A
C83          O84   1.262       .  A
C83         C364   1.466       .  S
C85          O87   1.261       .  A
C85          O91   1.262       .  A
C85         C616   1.468       .  S
C89         C378   1.476       .  S
In92         O94   2.257       .  S
In92         O95   2.231       .  S
In92        O103   2.213       .  S
In92         O97   2.273       .  S
In92         O99   2.260       .  S
In92        O100   2.242       .  S
In92        O101   2.216       .  S
In92        O104   2.252       .  S
C93          O99   1.266   1_455  A
C93         O101   1.261   1_455  A
C93         C325   1.474       .  S
O94         C102   1.262       .  A
O95         C102   1.261       .  A
C96         O103   1.256       .  A
C96          O97   1.264       .  A
C96         C367   1.480       .  S
C98         O100   1.260       .  A
C98         O104   1.260       .  A
C98         C406   1.477       .  S
C102        C339   1.476       .  S
In105       O107   2.261       .  S
In105       O108   2.230       .  S
In105       O116   2.228       .  S
In105       O110   2.258       .  S
In105       O112   2.264       .  S
In105       O113   2.247       .  S
In105       O114   2.222       .  S
In105       O117   2.248       .  S
C106        O112   1.264       .  A
C106        O114   1.258       .  A
C106        C647   1.473       .  S
O107        C115   1.262       .  A
O108        C115   1.261       .  A
C109        O116   1.259       .  A
C109        O110   1.263       .  A
C109        C311   1.485       .  S
C111        O113   1.262       .  A
C111        O117   1.261       .  A
C111        C297   1.483   1_554  S
C115        C437   1.469       .  S
In118       O120   2.238       .  S
In118       O121   2.241       .  S
In118       O129   2.231       .  S
In118       O123   2.257       .  S
In118       O125   2.270   1_565  S
In118       O126   2.231       .  S
In118       O127   2.214   1_565  S
In118       O130   2.250   1_565  S
C119        O125   1.266       .  A
C119        O127   1.258       .  A
C119        C420   1.479       .  S
O120        C128   1.261       .  A
O121        C128   1.262       .  A
C122        O129   1.257       .  A
C122        O123   1.262       .  A
C122        C308   1.478       .  S
C124        O126   1.262   1_545  A
C124        O130   1.263       .  A
C124        C280   1.478       .  S
C128        C563   1.477       .  S
In131       O133   2.259       .  S
In131       O134   2.223       .  S
In131       O142   2.209       .  S
In131       O136   2.266       .  S
In131       O138   2.267       .  S
In131       O139   2.238       .  S
In131       O140   2.214       .  S
In131       O143   2.250       .  S
C132        O138   1.265       .  A
C132        O140   1.258       .  A
C132        C381   1.471       .  S
O133        C141   1.263       .  A
O134        C141   1.261       .  A
C135        O142   1.257       .  A
C135        O136   1.264       .  A
C135        C269   1.475       .  S
C137        O139   1.260       .  A
C137        O143   1.260       .  A
C137        C252   1.474       .  S
C141        C507   1.467       .  S
In144       O146   2.251       .  S
In144       O147   2.226       .  S
In144       O155   2.218       .  S
In144       O149   2.261       .  S
In144       O151   2.272       .  S
In144       O152   2.232       .  S
In144       O153   2.214       .  S
In144       O156   2.259       .  S
C145        O151   1.264       .  A
C145        O153   1.256       .  A
C145        C490   1.476   1_545  S
O146        C154   1.264       .  A
O147        C154   1.263       .  A
C148        O155   1.257       .  A
C148        O149   1.263       .  A
C148        C266   1.466       .  S
C150        O152   1.258       .  A
C150        O156   1.261       .  A
C150        C283   1.481       .  S
C154        C322   1.473       .  S
In157       O159   2.261       .  S
In157       O160   2.221       .  S
In157       O168   2.205       .  S
In157       O162   2.273       .  S
In157       O164   2.269       .  S
In157       O165   2.234       .  S
In157       O166   2.206       .  S
In157       O169   2.251       .  S
C158        O164   1.266       .  A
C158        O166   1.258       .  A
C158        C465   1.465       .  S
O159        C167   1.262       .  A
O160        C167   1.259       .  A
C161        O168   1.256       .  A
C161        O162   1.265       .  A
C161        C238   1.478       .  S
C163        O165   1.260       .  A
C163        O169   1.262       .  A
C163        C255   1.476   1_554  S
C167        C605   1.467       .  S
In170       O172   2.262       .  S
In170       O173   2.216       .  S
In170       O181   2.209       .  S
In170       O175   2.274       .  S
In170       O177   2.271       .  S
In170       O178   2.228       .  S
In170       O179   2.213       .  S
In170       O182   2.264       .  S
C171        O177   1.264       .  A
C171        O179   1.257       .  A
C171        C591   1.473   1_545  S
O172        C180   1.265       .  A
O173        C180   1.260       .  A
C174        O181   1.256       .  A
C174        O175   1.264       .  A
C174        C241   1.471       .  S
C176        O178   1.257       .  A
C176        O182   1.261       .  A
C176        C224   1.483       .  S
C180        C392   1.472       .  S
In183       O185   2.244       .  S
In183       O186   2.244       .  S
In183       O194   2.232       .  S
In183       O188   2.255       .  S
In183       O190   2.266       .  S
In183       O191   2.237       .  S
In183       O192   2.203       .  S
In183       O195   2.250       .  S
C184        O190   1.267       .  A
C184        O192   1.260       .  A
C184        C546   1.478       .  S
O185        C193   1.260       .  A
O186        C193   1.262       .  A
C187        O194   1.256       .  A
C187        O188   1.262       .  A
C187        C210   1.469       .  S
C189        O191   1.262       .  A
C189        O195   1.262       .  A
C189        C294   1.477       .  S
C193        C353   1.470       .  S
In196       O198   2.243       .  S
In196       O199   2.229       .  S
In196       O207   2.211       .  S
In196       O201   2.268       .  S
In196       O203   2.265   1_565  S
In196       O204   2.233       .  S
In196       O205   2.223   1_565  S
In196       O208   2.252   1_565  S
C197        O203   1.265       .  A
C197        O205   1.257       .  A
C197        C336   1.478       .  S
O198        C206   1.264       .  A
O199        C206   1.263       .  A
C200        O207   1.258       .  A
C200        O201   1.266       .  A
C200        C213   1.482       .  S
C202        O204   1.260   1_545  A
C202        O208   1.260       .  A
C202        C227   1.475       .  S
C206        C479   1.470       .  S
C209        C210   1.404       .  A
C209        C214   1.409       .  A
C209        H216   1.084       .  S
C210        C211   1.415       .  A
C211        C212   1.397       .  A
C211        N218   1.441       .  S
C212        C213   1.405       .  A
C212        H217   1.084       .  S
C213        C214   1.412       .  A
C214        N215   1.437       .  S
N215        H219   1.046       .  S
N215        H220   1.046       .  S
N218        H221   1.041       .  S
N218        H222   1.046       .  S
C223        C224   1.405       .  A
C223        C228   1.394       .  A
C223        H230   1.084       .  S
C224        C225   1.415       .  A
C225        C226   1.409       .  A
C225        N232   1.437       .  S
C226        C227   1.404       .  A
C226        H231   1.084       .  S
C227        C228   1.412       .  A
C228        N229   1.433       .  S
N229        H233   1.044       .  S
N229        H234   1.046       .  S
N232        H235   1.046       .  S
N232        H236   1.046       .  S
C237        C238   1.407       .  A
C237        C242   1.412       .  A
C237        H244   1.083       .  S
C238        C239   1.414       .  A
C239        C240   1.397       .  A
C239        N246   1.439       .  S
C240        C241   1.398       .  A
C240        H245   1.085       .  S
C241        C242   1.409       .  A
C242        N243   1.437       .  S
N243        H247   1.046       .  S
N243        H248   1.046       .  S
N246        H249   1.045       .  S
N246        H250   1.046       .  S
C251        C252   1.403       .  A
C251        C256   1.405       .  A
C251        H258   1.084       .  S
C252        C253   1.417       .  A
C253        C254   1.401       .  A
C253        N260   1.438       .  S
C254        C255   1.402       .  A
C254        H259   1.084   1_556  S
C255        C256   1.411       .  A
C256        N257   1.438       .  S
N257        H261   1.046       .  S
N257        H262   1.046       .  S
N260        H263   1.043       .  S
N260        H264   1.045       .  S
C265        C266   1.398       .  A
C265        C270   1.398       .  A
C265        H272   1.085       .  S
C266        C267   1.415       .  A
C267        C268   1.406       .  A
C267        N274   1.438       .  S
C268        C269   1.405       .  A
C268        H273   1.084       .  S
C269        C270   1.413       .  A
C270        N271   1.439       .  S
N271        H275   1.046       .  S
N271        H276   1.046       .  S
N274        H277   1.044       .  S
N274        H278   1.046       .  S
C279        C280   1.402       .  A
C279        C284   1.395       .  A
C279        H286   1.085       .  S
C280        C281   1.420       .  A
C281        C282   1.406       .  A
C281        N288   1.439       .  S
C282        C283   1.405       .  A
C282        H287   1.084       .  S
C283        C284   1.415       .  A
C284        N285   1.433       .  S
N285        H289   1.045       .  S
N285        H290   1.046       .  S
N288        H291   1.041       .  S
N288        H292   1.046   1_545  S
C293        C294   1.403       .  A
C293        C298   1.407       .  A
C293        H300   1.084       .  S
C294        C295   1.416       .  A
C295        C296   1.401       .  A
C295        N302   1.438       .  S
C296        C297   1.404       .  A
C296        H301   1.084   1_556  S
C297        C298   1.413       .  A
C298        N299   1.438       .  S
N299        H303   1.046       .  S
N299        H304   1.046       .  S
N302        H305   1.043       .  S
N302        H306   1.045       .  S
C307        C308   1.404       .  A
C307        C312   1.406       .  A
C307        H314   1.084       .  S
C308        C309   1.411       .  A
C309        C310   1.404       .  A
C309        N316   1.438       .  S
C310        C311   1.407       .  A
C310        H315   1.083       .  S
C311        C312   1.413       .  A
C312        N313   1.437       .  S
N313        H317   1.046       .  S
N313        H318   1.046       .  S
N316        H319   1.046       .  S
N316        H320   1.046       .  S
C321        C322   1.402       .  A
C321        C326   1.402       .  A
C321        H328   1.084       .  S
C322        C323   1.418       .  A
C323        C324   1.401       .  A
C323        N330   1.439       .  S
C324        C325   1.402       .  A
C324        H329   1.085       .  S
C325        C326   1.417       .  A
C326        N327   1.438       .  S
N327        H331   1.046       .  S
N327        H332   1.041       .  S
N330        H333   1.040       .  S
N330        H334   1.046       .  S
C335        C336   1.406       .  A
C335        C340   1.407       .  A
C335        H342   1.084       .  S
C336        C337   1.412       .  A
C337        C338   1.405       .  A
C337        N344   1.438       .  S
C338        C339   1.403       .  A
C338        H343   1.084       .  S
C339        C340   1.410       .  A
C340        N341   1.438       .  S
N341        H345   1.046       .  S
N341        H346   1.045       .  S
N344        H347   1.046       .  S
N344        H348   1.046       .  S
C349        C350   1.404       .  A
C349        C354   1.408       .  A
C349        H356   1.084       .  S
C350        C351   1.413       .  A
C351        C352   1.402       .  A
C351        N358   1.438       .  S
C352        C353   1.400       .  A
C352        H357   1.084       .  S
C353        C354   1.409       .  A
C354        N355   1.437       .  S
N355        H359   1.046       .  S
N355        H360   1.045       .  S
N358        H361   1.045       .  S
N358        H362   1.046       .  S
C363        C364   1.402       .  A
C363        C368   1.411       .  A
C363        H370   1.084       .  S
C364        C365   1.405       .  A
C365        C366   1.399       .  A
C365        N372   1.439       .  S
C366        C367   1.405       .  A
C366        H371   1.084       .  S
C367        C368   1.413       .  A
C368        N369   1.437       .  S
N369        H373   1.046       .  S
N369        H374   1.046       .  S
N372        H375   1.046       .  S
N372        H376   1.046       .  S
C377        C378   1.403       .  A
C377        C382   1.402       .  A
C377        H384   1.084       .  S
C378        C379   1.420       .  A
C379        C380   1.401       .  A
C379        N386   1.439       .  S
C380        C381   1.401       .  A
C380        H385   1.085       .  S
C381        C382   1.415       .  A
C382        N383   1.438       .  S
N383        H387   1.046       .  S
N383        H388   1.042       .  S
N386        H389   1.039       .  S
N386        H390   1.046       .  S
C391        C392   1.403       .  A
C391        C396   1.401       .  A
C391        H398   1.085       .  S
C392        C393   1.415       .  A
C393        C394   1.401       .  A
C393        N400   1.439       .  S
C394        C395   1.404       .  A
C394        H399   1.085       .  S
C395        C396   1.416       .  A
C396        N397   1.438       .  S
N397        H401   1.046       .  S
N397        H402   1.041       .  S
N400        H403   1.042       .  S
N400        H404   1.046       .  S
C405        C406   1.403       .  A
C405        C410   1.406       .  A
C405        H412   1.084       .  S
C406        C407   1.411   1_655  A
C407        C408   1.406       .  A
C407        N414   1.438       .  S
C408        C409   1.404   1_455  A
C408        H413   1.084       .  S
C409        C410   1.413       .  A
C410        N411   1.438       .  S
N411        H415   1.046       .  S
N411        H416   1.046       .  S
N414        H417   1.045       .  S
N414        H418   1.046       .  S
C419        C420   1.404       .  A
C419        C424   1.408       .  A
C419        H426   1.083       .  S
C420        C421   1.415       .  A
C421        C422   1.403       .  A
C421        N428   1.438       .  S
C422        C423   1.398       .  A
C422        H427   1.084       .  S
C423        C424   1.408       .  A
C424        N425   1.438       .  S
N425        H429   1.046       .  S
N425        H430   1.045       .  S
N428        H431   1.045       .  S
N428        H432   1.046       .  S
C433        C434   1.405       .  A
C433        C438   1.406       .  A
C433        H440   1.084       .  S
C434        C435   1.413       .  A
C435        C436   1.402       .  A
C435        N442   1.438       .  S
C436        C437   1.399       .  A
C436        H441   1.085       .  S
C437        C438   1.414       .  A
C438        N439   1.438       .  S
N439        H443   1.045       .  S
N439        H444   1.044       .  S
N442        H445   1.046       .  S
N442        H446   1.046       .  S
C447        C448   1.405       .  A
C447        C452   1.412       .  A
C447        H454   1.084       .  S
C448        C449   1.413       .  A
C449        C450   1.394       .  A
C449        N456   1.440       .  S
C450        C451   1.403       .  A
C450        H455   1.084       .  S
C451        C452   1.410       .  A
C452        N453   1.437       .  S
N453        H457   1.046       .  S
N453        H458   1.046       .  S
N456        H459   1.043       .  S
N456        H460   1.046       .  S
C461        C462   1.405       .  A
C461        C466   1.409       .  A
C461        H468   1.084       .  S
C462        C463   1.411       .  A
C463        C464   1.401       .  A
C463        N470   1.438       .  S
C464        C465   1.399       .  A
C464        H469   1.084       .  S
C465        C466   1.408       .  A
C466        N467   1.438       .  S
N467        H471   1.046       .  S
N467        H472   1.046       .  S
N470        H473   1.046       .  S
N470        H474   1.046       .  S
C475        C476   1.402       .  A
C475        C480   1.403       .  A
C475        H482   1.084       .  S
C476        C477   1.412       .  A
C477        C478   1.403       .  A
C477        N484   1.438       .  S
C478        C479   1.400       .  A
C478        H483   1.084       .  S
C479        C480   1.415       .  A
C480        N481   1.438       .  S
N481        H485   1.045       .  S
N481        H486   1.044       .  S
N484        H487   1.045       .  S
N484        H488   1.046       .  S
C489        C490   1.403       .  A
C489        C494   1.402       .  A
C489        H496   1.084       .  S
C490        C491   1.412       .  A
C491        C492   1.408       .  A
C491        N498   1.437       .  S
C492        C493   1.404       .  A
C492        H497   1.084       .  S
C493        C494   1.412       .  A
C494        N495   1.439       .  S
N495        H499   1.046       .  S
N495        H500   1.045       .  S
N498        H501   1.046       .  S
N498        H502   1.046       .  S
C503        C504   1.406       .  A
C503        C508   1.401       .  A
C503        H510   1.083       .  S
C504        C505   1.413       .  A
C505        C506   1.411       .  A
C505        N512   1.437       .  S
C506        C507   1.402       .  A
C506        H511   1.084       .  S
C507        C508   1.404       .  A
C508        N509   1.439       .  S
N509        H513   1.046       .  S
N509        H514   1.046       .  S
N512        H515   1.046       .  S
N512        H516   1.046       .  S
C517        C518   1.407       .  A
C517        C522   1.404       .  A
C517        H524   1.083       .  S
C518        C519   1.416       .  A
C519        C520   1.407       .  A
C519        N526   1.437       .  S
C520        C521   1.399       .  A
C520        H525   1.084       .  S
C521        C522   1.406       .  A
C522        N523   1.439   1_556  S
N523        H527   1.046   1_554  S
N523        H528   1.046       .  S
N526        H529   1.046       .  S
N526        H530   1.046       .  S
C531        C532   1.405       .  A
C531        C536   1.409       .  A
C531        H538   1.083       .  S
C532        C533   1.418       .  A
C533        C534   1.401       .  A
C533        N540   1.439       .  S
C534        C535   1.398       .  A
C534        H539   1.084       .  S
C535        C536   1.411       .  A
C536        N537   1.438       .  S
N537        H541   1.046       .  S
N537        H542   1.045       .  S
N540        H543   1.046       .  S
N540        H544   1.046       .  S
C545        C546   1.405       .  A
C545        C550   1.398       .  A
C545        H552   1.084       .  S
C546        C547   1.414       .  A
C547        C548   1.410       .  A
C547        N554   1.437       .  S
C548        C549   1.401       .  A
C548        H553   1.084       .  S
C549        C550   1.404       .  A
C550        N551   1.438       .  S
N551        H555   1.046       .  S
N551        H556   1.046       .  S
N554        H557   1.046       .  S
N554        H558   1.046       .  S
C559        C560   1.403       .  A
C559        C564   1.403       .  A
C559        H566   1.084       .  S
C560        C561   1.411       .  A
C561        C562   1.407       .  A
C561        N568   1.438       .  S
C562        C563   1.404       .  A
C562        H567   1.084       .  S
C563        C564   1.412       .  A
C564        N565   1.438       .  S
N565        H569   1.046       .  S
N565        H570   1.045       .  S
N568        H571   1.046       .  S
N568        H572   1.046       .  S
C573        C574   1.403       .  A
C573        C578   1.401       .  A
C573        H580   1.084       .  S
C574        C575   1.412       .  A
C575        C576   1.405       .  A
C575        N582   1.438       .  S
C576        C577   1.404       .  A
C576        H581   1.084   1_655  S
C577        C578   1.416       .  A
C578        N579   1.432       .  S
N579        H583   1.045       .  S
N579        H584   1.046   1_655  S
N582        H585   1.046   1_655  S
N582        H586   1.046       .  S
C587        C588   1.403       .  A
C587        C592   1.403       .  A
C587        H594   1.084       .  S
C588        C589   1.420       .  A
C589        C590   1.399       .  A
C589        N596   1.440       .  S
C590        C591   1.401       .  A
C590        H595   1.085       .  S
C591        C592   1.417       .  A
C592        N593   1.438       .  S
N593        H597   1.046       .  S
N593        H598   1.041       .  S
N596        H599   1.039       .  S
N596        H600   1.046       .  S
C601        C602   1.403       .  A
C601        C606   1.404       .  A
C601        H608   1.084       .  S
C602        C603   1.415       .  A
C603        C604   1.402       .  A
C603        N610   1.438       .  S
C604        C605   1.398       .  A
C604        H609   1.084       .  S
C605        C606   1.415       .  A
C606        N607   1.437       .  S
N607        H611   1.045       .  S
N607        H612   1.043       .  S
N610        H613   1.046       .  S
N610        H614   1.046       .  S
C615        C616   1.398       .  A
C615        C620   1.403       .  A
C615        H622   1.084       .  S
C616        C617   1.413       .  A
C617        C618   1.404       .  A
C617        N624   1.438       .  S
C618        C619   1.408       .  A
C618        H623   1.084       .  S
C619        C620   1.416       .  A
C620        N621   1.438       .  S
N621        H625   1.046       .  S
N621        H626   1.046       .  S
N624        H627   1.044       .  S
N624        H628   1.046       .  S
C629        C630   1.406       .  A
C629        C634   1.404       .  A
C629        H636   1.084       .  S
C630        C631   1.411       .  A
C631        C632   1.407       .  A
C631        N638   1.438       .  S
C632        C633   1.406       .  A
C632        H637   1.084       .  S
C633        C634   1.411       .  A
C634        N635   1.438       .  S
N635        H639   1.046       .  S
N635        H640   1.045       .  S
N638        H641   1.046       .  S
N638        H642   1.046       .  S
C643        C644   1.402       .  A
C643        C648   1.399       .  A
C643        H650   1.084       .  S
C644        C645   1.415       .  A
C645        C646   1.402       .  A
C645        N652   1.439       .  S
C646        C647   1.403       .  A
C646        H651   1.084       .  S
C647        C648   1.416       .  A
C648        N649   1.438       .  S
N649        H653   1.046       .  S
N649        H654   1.044       .  S
N652        H655   1.044       .  S
N652        H656   1.046       .  S
