geometry optimzed in LAMMPS
_audit_creation_date              2020-12-01 
_audit_creation_method            'lammps2cif' 
_symmetry_space_group_name_H-M    'P1' 
_symmetry_Int_Tables_number       1 
_symmetry_cell_setting            triclinic 
loop_ 
_symmetry_equiv_pos_as_xyz 
  x,y,z 
_cell_length_a                    70.94116218 
_cell_length_b                    70.86781789936083 
_cell_length_c                    70.89453610520869 
_cell_angle_alpha                 89.9798859082593 
_cell_angle_beta                  89.94687100072875 
_cell_angle_gamma                 89.99415023366137 
loop_ 
_atom_site_label 
_atom_site_type_symbol 
_atom_site_fract_x 
_atom_site_fract_y 
_atom_site_fract_z 
_atom_site_charge 
O1          O  0.02840406  0.50268748  0.84309203    -0.72200
O2          O  0.03903116  0.47567000  0.88836018    -0.72400
O3          O  0.05892501  0.48586264  0.85780942    -0.72200
O4          O  0.00863187  0.49262028  0.87402872    -0.72200
O5          O  0.00076189  0.46589003  0.86132660    -0.72200
O6          O  0.05092313  0.46018799  0.84315676    -0.72200
O7          O  0.03224378  0.44941856  0.87410223    -0.72200
O8          O  0.01948664  0.47653295  0.82991097    -0.72400
V9          V  0.03357299  0.48873637  0.86551563     1.35200
V10         V  0.02596373  0.46355142  0.85234102     1.35200
C11         C  0.02224307  0.49410749  0.82868781     0.77100
C12         C  0.03756776  0.45786593  0.88884134     0.77100
C13         C  0.06358393  0.47186139  0.84783464     0.77000
C14         C  0.99629410  0.48010249  0.87118088     0.77000
O15         O  0.02135674  0.35687590  0.03948101    -0.72200
O16         O  0.05006839  0.40021903  0.05344816    -0.72400
O17         O  0.03401982  0.38792479  0.02165135    -0.72200
O18         O  0.03717704  0.36957389  0.07154853    -0.72200
O19         O  0.06300909  0.35468212  0.06457766    -0.72200
O20         O  0.05992973  0.37338433  0.01426588    -0.72200
O21         O  0.07575778  0.38508597  0.04643840    -0.72200
O22         O  0.04744261  0.34236727  0.03254060    -0.72400
V23         V  0.03612015  0.37832688  0.04637131     1.35200
V24         V  0.06097906  0.36412449  0.03953731     1.35200
C25         C  0.02972575  0.34207642  0.03399128     0.77100
C26         C  0.06789384  0.39991956  0.05230288     0.77100
C27         C  0.04661513  0.38434382  0.00958968     0.77000
C28         C  0.05077606  0.35933159  0.07673897     0.77000
O29         O  0.82696400  0.50373610  0.98457854    -0.72200
O30         O  0.87328637  0.49314688  0.95956862    -0.72400
O31         O  0.85719087  0.52392879  0.97437397    -0.72200
O32         O  0.84318003  0.47287608  0.97014948    -0.72200
O33         O  0.82883133  0.47875444  0.94374726    -0.72200
O34         O  0.84547841  0.52981281  0.94667674    -0.72200
O35         O  0.85952337  0.49767630  0.93259198    -0.72200
O36         O  0.81415949  0.51061540  0.95760858    -0.72400
V37         V  0.84988784  0.49855539  0.97164230     1.35200
V38         V  0.83721958  0.50417569  0.94568556     1.35200
C39         C  0.81258556  0.50871104  0.97526052     0.77100
C40         C  0.87417549  0.49337934  0.94172670     0.77100
C41         C  0.85431971  0.53544794  0.96113303     0.77000
C42         C  0.83350683  0.46706250  0.95641278     0.77000
O43         O  0.17867060  0.54433979  0.04084747    -0.72200
O44         O  0.13564196  0.55901048  0.06940003    -0.72400
O45         O  0.16688663  0.57615913  0.05770973    -0.72200
O46         O  0.14678663  0.52732669  0.05244919    -0.72200
O47         O  0.15959015  0.51883199  0.07892989    -0.72200
O48         O  0.18246608  0.56743843  0.08263281    -0.72200
O49         O  0.15041087  0.55175109  0.09521399    -0.72200
O50         O  0.19207642  0.53442904  0.06652169    -0.72400
V51         V  0.15735095  0.55149361  0.05555958     1.35200
V52         V  0.17093052  0.54322126  0.08030857     1.35200
C53         C  0.19277630  0.53690080  0.04888054     0.77100
C54         C  0.13580823  0.55810951  0.08723533     0.77100
C55         C  0.17771607  0.58028008  0.07116663     0.77000
C56         C  0.14888590  0.51503655  0.06514493     0.77000
O57         O  0.98655319  0.55001938  0.18826692    -0.72200
O58         O  0.97154501  0.57752415  0.14474293    -0.72400
O59         O  0.00362636  0.56207346  0.15672690    -0.72200
O60         O  0.95415415  0.56524384  0.17592269    -0.72200
O61         O  0.96079194  0.59189558  0.18946415    -0.72200
O62         O  0.01135469  0.58790891  0.17123793    -0.72200
O63         O  0.97931822  0.60361807  0.15878971    -0.72200
O64         O  0.99278756  0.57645745  0.20247320    -0.72400
V65         V  0.97912604  0.56420248  0.16674392     1.35200
V66         V  0.98597301  0.58943525  0.18027232     1.35200
C67         C  0.99189518  0.55868907  0.20291593     0.77100
C68         C  0.97304078  0.59531795  0.14437310     0.77100
C69         C  0.01583922  0.57450992  0.16026892     0.77000
C70         C  0.94877603  0.57928725  0.18545615     0.77000
O71         O  0.97696477  0.69526856  0.99233017    -0.72200
O72         O  0.94712325  0.65183948  0.98179552    -0.72400
O73         O  0.95834901  0.68187789  0.96240957    -0.72200
O74         O  0.96605805  0.66461193  0.01185681    -0.72200
O75         O  0.94076330  0.67903964  0.02134104    -0.72200
O76         O  0.93366405  0.69769412  0.97137545    -0.72200
O77         O  0.92216740  0.66723711  0.99064818    -0.72200
O78         O  0.95191209  0.70990767  0.00211676    -0.72400
V79         V  0.96167282  0.67373410  0.98735941     1.35200
V80         V  0.93762445  0.68820824  0.99624042     1.35200
C81         C  0.96936938  0.71014757  0.99869590     0.77100
C82         C  0.92943005  0.65234300  0.98411791     0.77100
C83         C  0.94467585  0.69243284  0.95832527     0.77000
C84         C  0.95455299  0.66826462  0.02491287     0.77000
O85         O  0.84117333  0.54654845  0.53200169    -0.72200
O86         O  0.88437663  0.56036415  0.56071841    -0.72400
O87         O  0.87307239  0.52905754  0.54300023    -0.72200
O88         O  0.85285001  0.57796866  0.54959331    -0.72200
O89         O  0.83922938  0.56897049  0.57552701    -0.72200
O90         O  0.85870594  0.51955848  0.56833938    -0.72200
O91         O  0.87024757  0.55068203  0.58613272    -0.72200
O92         O  0.82709070  0.53799821  0.55785743    -0.72400
V93         V  0.86256505  0.55327520  0.54677899     1.35200
V94         V  0.84906093  0.54441247  0.57140780     1.35200
C95         C  0.82655236  0.54044111  0.54023655     0.77100
C96         C  0.88456573  0.55786948  0.57840286     0.77100
C97         C  0.86980693  0.51609855  0.55478332     0.77000
C98         C  0.84294491  0.58195219  0.56385833     0.77000
O99         O  0.98426841  0.34672305  0.53396291    -0.72200
O100        O  0.95999700  0.39370990  0.54358478    -0.72400
O101        O  0.96872694  0.36334568  0.56418455    -0.72200
O102        O  0.97579926  0.37751917  0.51356715    -0.72200
O103        O  0.94784820  0.36717004  0.50658803    -0.72200
O104        O  0.94296418  0.34852562  0.55670164    -0.72200
O105        O  0.93293853  0.38022852  0.53870430    -0.72200
O106        O  0.95753768  0.33514192  0.52457681    -0.72400
V107        V  0.97172874  0.37002615  0.53867811     1.35200
V108        V  0.94583475  0.35796881  0.53174148     1.35200
C109        C  0.97494382  0.33292560  0.52748108     0.77100
C110        C  0.94219155  0.39480847  0.54304295     0.77100
C111        C  0.95481922  0.35342361  0.56908767     0.77000
C112        C  0.96270879  0.37577206  0.50168205     0.77000
O113        O  0.98678819  0.49592970  0.33837766    -0.72200
O114        O  0.97545514  0.46840459  0.38297815    -0.72400
O115        O  0.00595546  0.48573309  0.36906764    -0.72200
O116        O  0.95599784  0.47889958  0.35242500    -0.72200
O117        O  0.96421658  0.45341566  0.33753146    -0.72200
O118        O  0.01416040  0.45903714  0.35640105    -0.72200
O119        O  0.98254064  0.44236569  0.36844073    -0.72200
O120        O  0.99576041  0.46988811  0.32487883    -0.72400
V121        V  0.98120508  0.48174569  0.36042015     1.35200
V122        V  0.98906290  0.45670699  0.34703878     1.35200
C123        C  0.99321806  0.48748755  0.32403464     0.77100
C124        C  0.97689439  0.45060362  0.38315719     0.77100
C125        C  0.01844425  0.47344474  0.36604832     0.77000
C126        C  0.95148221  0.46501023  0.34225527     0.77000
O127        O  0.18068281  0.50278203  0.48663549    -0.72200
O128        O  0.13501856  0.49655338  0.45904395    -0.72400
O129        O  0.16286696  0.47388359  0.47017476    -0.72200
O130        O  0.15251759  0.52572734  0.47591386    -0.72200
O131        O  0.16527974  0.53150695  0.44863077    -0.72200
O132        O  0.17990741  0.47998154  0.44541582    -0.72200
O133        O  0.15070662  0.50057116  0.43301221    -0.72200
O134        O  0.19482263  0.51100592  0.46072326    -0.72400
V135        V  0.15804956  0.49991291  0.47247964     1.35200
V136        V  0.17241636  0.50566956  0.44744529     1.35200
C137        C  0.19557766  0.50797812  0.47824563     0.77100
C138        C  0.13530467  0.49702899  0.44118321     0.77100
C139        C  0.17345690  0.46811771  0.45711345     0.77000
C140        C  0.15645327  0.53733756  0.46300062     0.77000
O141        O  0.02996358  0.54914460  0.68767648    -0.72200
O142        O  0.04317198  0.57634995  0.64311170    -0.72400
O143        O  0.06118873  0.56534481  0.67443347    -0.72200
O144        O  0.01193756  0.55979560  0.65590896    -0.72200
O145        O  0.00382141  0.58660657  0.66832535    -0.72200
O146        O  0.05309651  0.59100060  0.68910507    -0.72200
O147        O  0.03627193  0.60257190  0.65736385    -0.72200
O148        O  0.02067918  0.57529417  0.70064102    -0.72400
V149        V  0.03635141  0.56313935  0.66558779     1.35200
V150        V  0.02856170  0.58833837  0.67865023     1.35200
C151        C  0.02336731  0.55771443  0.70191429     0.77100
C152        C  0.04215379  0.59420568  0.64276892     0.77100
C153        C  0.06564241  0.57902490  0.68485277     0.77000
C154        C  0.99977744  0.57259196  0.65801906     0.77000
O155        O  0.03595825  0.69769770  0.49370915    -0.72200
O156        O  0.06645249  0.65599664  0.47863927    -0.72400
O157        O  0.04855545  0.66593380  0.51032009    -0.72200
O158        O  0.05351971  0.68730067  0.46180244    -0.72200
O159        O  0.07965544  0.70085275  0.47014812    -0.72200
O160        O  0.07252802  0.68208149  0.52033904    -0.72200
O161        O  0.09103892  0.67055314  0.48962128    -0.72200
O162        O  0.06134469  0.71318507  0.50101056    -0.72400
V163        V  0.05156856  0.67705955  0.48632671     1.35200
V164        V  0.07562425  0.69145570  0.49514629     1.35200
C165        C  0.04364217  0.71281408  0.49934160     0.77100
C166        C  0.08399299  0.65612461  0.48199211     0.77100
C167        C  0.05972870  0.66998217  0.52355606     0.77000
C168        C  0.06770666  0.69709336  0.45738505     0.77000
O169        O  0.52328708  0.54516295  0.83761434    -0.72200
O170        O  0.53650889  0.57032603  0.88325318    -0.72400
O171        O  0.50509730  0.55477030  0.86953564    -0.72200
O172        O  0.55484771  0.56053647  0.85169493    -0.72200
O173        O  0.54737039  0.58734618  0.83888360    -0.72200
O174        O  0.49723045  0.58173361  0.85731436    -0.72200
O175        O  0.52919987  0.59713828  0.87033085    -0.72200
O176        O  0.51570785  0.57213632  0.82517555    -0.72400
V177        V  0.52974017  0.55819320  0.86023223     1.35200
V178        V  0.52243373  0.58402637  0.84812887     1.35200
C179        C  0.51775904  0.55451841  0.82343842     0.77100
C180        C  0.53528402  0.58811564  0.88442231     0.77100
C181        C  0.49285094  0.56745609  0.86714542     0.77000
C182        C  0.55974617  0.57502205  0.84256690     0.77000
O183        O  0.33089294  0.53786559  0.98860006    -0.72200
O184        O  0.37498097  0.55019543  0.96051746    -0.72400
O185        O  0.34460923  0.56908287  0.97210003    -0.72200
O186        O  0.36192774  0.51902264  0.97707068    -0.72200
O187        O  0.34823322  0.51132154  0.95078839    -0.72200
O188        O  0.32931270  0.56154334  0.94666168    -0.72200
O189        O  0.36014439  0.54343911  0.93460567    -0.72200
O190        O  0.31692473  0.52951053  0.96268332    -0.72400
V191        V  0.35274748  0.54382986  0.97411765     1.35200
V192        V  0.33888790  0.53653880  0.94921487     1.35200
C193        C  0.31625563  0.53184097  0.98033396     0.77100
C194        C  0.37491928  0.54919915  0.94269340     0.77100
C195        C  0.33438243  0.57400152  0.95840810     0.77000
C196        C  0.35883050  0.50685984  0.96444995     0.77000
O197        O  0.47533427  0.34268785  0.99696484    -0.72200
O198        O  0.44762723  0.38496810  0.97909026    -0.72400
O199        O  0.46389744  0.37561892  0.01163828    -0.72200
O200        O  0.45929998  0.35225141  0.96424461    -0.72200
O201        O  0.43243457  0.34008453  0.97248843    -0.72200
O202        O  0.43864293  0.36138457  0.02150821    -0.72200
O203        O  0.42177794  0.37219015  0.98940647    -0.72200
O204        O  0.44906401  0.32880186  0.00446560    -0.72400
V205        V  0.46103741  0.36358913  0.98818432     1.35200
V206        V  0.43598464  0.35083303  0.99686536     1.35200
C207        C  0.46680793  0.32826230  0.00310623     0.77100
C208        C  0.42996632  0.38589829  0.98148321     0.77100
C209        C  0.45208772  0.37274169  0.02461871     0.77000
C210        C  0.44497118  0.34261131  0.96001502     0.77000
O211        O  0.48257814  0.49021863  0.19011552    -0.72200
O212        O  0.47157083  0.46433526  0.14439995    -0.72400
O213        O  0.45182424  0.47447506  0.17474966    -0.72200
O214        O  0.50221581  0.48030692  0.15912961    -0.72200
O215        O  0.50925961  0.45270186  0.17037219    -0.72200
O216        O  0.45925902  0.44910232  0.19029866    -0.72200
O217        O  0.47660291  0.43767974  0.15866123    -0.72200
O218        O  0.49184051  0.46379858  0.20255128    -0.72400
V219        V  0.47723441  0.47686919  0.16742636     1.35200
V220        V  0.48416799  0.45132860  0.18026926     1.35200
C221        C  0.48903795  0.48131359  0.20419844     0.77100
C222        C  0.47181891  0.44648160  0.14393843     0.77100
C223        C  0.44688880  0.46091784  0.18514279     0.77000
C224        C  0.51405128  0.46714538  0.16094689     0.77000
O225        O  0.52947015  0.69236243  0.03323806    -0.72200
O226        O  0.55530070  0.64757223  0.04803720    -0.72400
O227        O  0.54457417  0.67938678  0.06517273    -0.72200
O228        O  0.53983897  0.66002932  0.01600671    -0.72200
O229        O  0.56688487  0.67206150  0.00820811    -0.72200
O230        O  0.57091030  0.69305624  0.05760400    -0.72200
O231        O  0.58193643  0.66101419  0.04113651    -0.72200
O232        O  0.55615171  0.70479523  0.02483474    -0.72400
V233        V  0.54279132  0.67012390  0.04039223     1.35200
V234        V  0.56843095  0.68251998  0.03300912     1.35200
C235        C  0.53855057  0.70643596  0.02697991     0.77100
C236        C  0.57313325  0.64685762  0.04739988     0.77100
C237        C  0.55851581  0.68931796  0.06992342     0.77000
C238        C  0.55275094  0.66199598  0.00392458     0.77000
O239        O  0.67365420  0.49746035  0.03600763    -0.72200
O240        O  0.63061574  0.48316209  0.06503161    -0.72400
O241        O  0.64269663  0.51513248  0.04912461    -0.72200
O242        O  0.66120094  0.46538713  0.05164998    -0.72200
O243        O  0.67629562  0.47205084  0.07743118    -0.72200
O244        O  0.65743943  0.52240961  0.07493324    -0.72200
O245        O  0.64582118  0.49000628  0.09069668    -0.72200
O246        O  0.68845963  0.50420176  0.06195062    -0.72400
V247        V  0.65235736  0.49046288  0.05094163     1.35200
V248        V  0.66674410  0.49710505  0.07572488     1.35200
C249        C  0.68861520  0.50272032  0.04419988     0.77100
C250        C  0.63096817  0.48410350  0.08288057     0.77100
C251        C  0.64632471  0.52711743  0.06175948     0.77000
C252        C  0.67175913  0.46010977  0.06494683     0.77000
O253        O  0.47710928  0.70005893  0.52889615    -0.72200
O254        O  0.45132842  0.65492705  0.54241758    -0.72400
O255        O  0.46703879  0.66854881  0.51087626    -0.72200
O256        O  0.46195625  0.68638786  0.56062751    -0.72200
O257        O  0.43527743  0.69965709  0.55363392    -0.72200
O258        O  0.44015183  0.68104497  0.50319784    -0.72200
O259        O  0.42473853  0.66828020  0.53523415    -0.72200
O260        O  0.45031119  0.71299462  0.52160152    -0.72400
V261        V  0.46381616  0.67774062  0.53556187     1.35200
V262        V  0.43814269  0.69027276  0.52851307     1.35200
C263        C  0.46797447  0.71430839  0.52322589     0.77100
C264        C  0.43355261  0.65394156  0.54100757     0.77100
C265        C  0.45451381  0.67141566  0.49861367     0.77000
C266        C  0.44793929  0.69607792  0.56573012     0.77000
O267        O  0.48541710  0.54129057  0.34376709    -0.72200
O268        O  0.47467294  0.57293322  0.38600241    -0.72400
O269        O  0.45540375  0.56074309  0.35594923    -0.72200
O270        O  0.50478442  0.55315195  0.37419322    -0.72200
O271        O  0.51479508  0.57710700  0.35792188    -0.72200
O272        O  0.46468144  0.58570714  0.34078198    -0.72200
O273        O  0.48521277  0.59703094  0.37028038    -0.72200
O274        O  0.49448756  0.56597027  0.32803042    -0.72400
V275        V  0.48030995  0.55747191  0.36466980     1.35200
V276        V  0.48961561  0.58094287  0.34951733     1.35200
C277        C  0.49153062  0.54841408  0.32855348     0.77100
C278        C  0.47811225  0.59046703  0.38523002     0.77100
C279        C  0.45145926  0.57473388  0.34568667     0.77000
C280        C  0.51819541  0.56382708  0.36936361     0.77000
O281        O  0.68835160  0.54000434  0.48026876    -0.72200
O282        O  0.64242284  0.54910173  0.45422646    -0.72400
O283        O  0.65902546  0.51886105  0.46945502    -0.72200
O284        O  0.67153947  0.57042315  0.46526968    -0.72200
O285        O  0.68597214  0.56500537  0.43879651    -0.72200
O286        O  0.67218815  0.51314749  0.44236508    -0.72200
O287        O  0.65667574  0.54413944  0.42756161    -0.72200
O288        O  0.70212455  0.53415340  0.45350608    -0.72400
V289        V  0.66563663  0.54447902  0.46679293     1.35200
V290        V  0.67903714  0.53916343  0.44111014     1.35200
C291        C  0.70312772  0.53576597  0.47121718     0.77100
C292        C  0.64178024  0.54821707  0.43640322     0.77100
C293        C  0.66289171  0.50732466  0.45646969     0.77000
C294        C  0.68067285  0.57661906  0.45129099     0.77000
O295        O  0.53885030  0.34947852  0.48733903    -0.72200
O296        O  0.57018944  0.39163723  0.47542990    -0.72400
O297        O  0.55854520  0.36111949  0.45718823    -0.72200
O298        O  0.55034642  0.38089972  0.50587484    -0.72200
O299        O  0.57517267  0.36635411  0.51628197    -0.72200
O300        O  0.58250918  0.34493637  0.46734105    -0.72200
O301        O  0.59454284  0.37589918  0.48527276    -0.72200
O302        O  0.56333064  0.33476912  0.49832425    -0.72400
V303        V  0.55488845  0.37044142  0.48176504     1.35200
V304        V  0.57836091  0.35574448  0.49168681     1.35200
C305        C  0.54598685  0.33465078  0.49435016     0.77100
C306        C  0.58784227  0.39066050  0.47791661     0.77100
C307        C  0.57208619  0.35011457  0.45379926     0.77000
C308        C  0.56173025  0.37778405  0.51920035     0.77000
O309        O  0.53045323  0.49836683  0.68325482    -0.72200
O310        O  0.54535574  0.47172916  0.63884313    -0.72400
O311        O  0.51367262  0.48826632  0.65074164    -0.72200
O312        O  0.56236044  0.48210690  0.67115648    -0.72200
O313        O  0.55397446  0.45548256  0.68380313    -0.72200
O314        O  0.50461318  0.46206814  0.66379567    -0.72200
O315        O  0.53646281  0.44547571  0.65190938    -0.72200
O316        O  0.52228984  0.47178684  0.69615377    -0.72400
V317        V  0.53778080  0.48461979  0.66127787     1.35200
V318        V  0.52944307  0.45924567  0.67368286     1.35200
C319        C  0.52427093  0.48944774  0.69746225     0.77100
C320        C  0.54333750  0.45398600  0.63784348     0.77100
C321        C  0.50095311  0.47610540  0.65335310     0.77000
C322        C  0.56658912  0.46775174  0.68080898     0.77000
O323        O  0.33606838  0.49975965  0.53394112    -0.72200
O324        O  0.38095003  0.48824508  0.56097953    -0.72400
O325        O  0.35005653  0.46895654  0.55069496    -0.72200
O326        O  0.36731791  0.51889200  0.54403233    -0.72200
O327        O  0.35404596  0.52727876  0.57034756    -0.72200
O328        O  0.33599523  0.47707832  0.57667103    -0.72200
O329        O  0.36691062  0.49595169  0.58711020    -0.72200
O330        O  0.32273930  0.50835313  0.56014824    -0.72400
V331        V  0.35829139  0.49414904  0.54789091     1.35200
V332        V  0.34515629  0.50204516  0.57303380     1.35200
C333        C  0.32162214  0.50573493  0.54257574     0.77100
C334        C  0.38150019  0.49015727  0.57872217     0.77100
C335        C  0.34021314  0.46440004  0.56481770     0.77000
C336        C  0.36424000  0.53143991  0.55628016     0.77000
O337        O  0.53111526  0.85123452  0.53114947    -0.72200
O338        O  0.56105620  0.89331966  0.54592312    -0.72400
O339        O  0.54357359  0.88283293  0.51432310    -0.72200
O340        O  0.54831833  0.86205702  0.56292196    -0.72200
O341        O  0.57444266  0.84830428  0.55481256    -0.72200
O342        O  0.56797720  0.86707471  0.50465440    -0.72200
O343        O  0.58599577  0.87888919  0.53551259    -0.72200
O344        O  0.55670388  0.83603493  0.52385779    -0.72400
V345        V  0.54649307  0.87205033  0.53837954     1.35200
V346        V  0.57078230  0.85780843  0.52984951     1.35200
C347        C  0.53900147  0.83620158  0.52560959     0.77100
C348        C  0.57862803  0.89337415  0.54276433     0.77100
C349        C  0.55496359  0.87885397  0.50124804     0.77000
C350        C  0.56226115  0.85197084  0.56738864     0.77000
O351        O  0.52212608  0.99879680  0.33837669    -0.72200
O352        O  0.53498797  0.97097810  0.38240931    -0.72400
O353        O  0.55319558  0.98215562  0.35136765    -0.72200
O354        O  0.50377818  0.98787834  0.36983585    -0.72200
O355        O  0.49529090  0.96172391  0.35635730    -0.72200
O356        O  0.54521120  0.95626785  0.33707096    -0.72200
O357        O  0.52719921  0.94498145  0.36820412    -0.72200
O358        O  0.51353352  0.97280127  0.32466521    -0.72400
V359        V  0.52828494  0.98445535  0.36020024     1.35200
V360        V  0.52038112  0.95946752  0.34680424     1.35200
C361        C  0.51616741  0.99041800  0.32378886     0.77100
C362        C  0.53361739  0.95316919  0.38265718     0.77100
C363        C  0.55776870  0.96824709  0.34127534     0.77000
C364        C  0.49124806  0.97560789  0.36686757     0.77000
O365        O  0.48593399  0.19506482  0.48804551    -0.72200
O366        O  0.45770633  0.15013361  0.47917419    -0.72400
O367        O  0.46854856  0.17952958  0.45838370    -0.72200
O368        O  0.47536329  0.16493982  0.50900201    -0.72200
O369        O  0.44858292  0.17768452  0.51660193    -0.72200
O370        O  0.44414069  0.19630104  0.46632640    -0.72200
O371        O  0.43195250  0.16572032  0.48480164    -0.72200
O372        O  0.46043147  0.20883475  0.49791395    -0.72400
V373        V  0.47146047  0.17274721  0.48388013     1.35200
V374        V  0.44678367  0.18688697  0.49134097     1.35200
C375        C  0.47781989  0.20976337  0.49422263     0.77100
C376        C  0.43986692  0.15053699  0.47989744     0.77100
C377        C  0.45529924  0.19039307  0.45369605     0.77000
C378        C  0.46271820  0.16777031  0.52121101     0.77000
O379        O  0.33120500  0.00585559  0.49017798    -0.72200
O380        O  0.37336395  0.98954548  0.46106978    -0.72400
O381        O  0.36327350  0.02169929  0.47769806    -0.72200
O382        O  0.34164739  0.97342016  0.47389396    -0.72200
O383        O  0.32787248  0.98131887  0.44771018    -0.72200
O384        O  0.34861413  0.03083214  0.45242593    -0.72200
O385        O  0.35906017  0.99867694  0.43558192    -0.72200
O386        O  0.31671675  0.01347229  0.46428742    -0.72400
V387        V  0.35204979  0.99782113  0.47522602     1.35200
V388        V  0.33827796  0.00597445  0.45053485     1.35200
C389        C  0.31655012  0.01196325  0.48202713     0.77100
C390        C  0.37340520  0.99155713  0.44330777     0.77100
C391        C  0.36017931  0.03434947  0.46559137     0.77000
C392        C  0.33152140  0.96887714  0.46001950     0.77000
O393        O  0.48341512  0.04922478  0.68745568    -0.72200
O394        O  0.47445305  0.07654043  0.64207056    -0.72400
O395        O  0.50465444  0.06072884  0.65837428    -0.72200
O396        O  0.45320662  0.06466496  0.67103823    -0.72200
O397        O  0.45899250  0.08994871  0.68733101    -0.72200
O398        O  0.51012390  0.08812164  0.67099707    -0.72200
O399        O  0.47813252  0.10281496  0.65737607    -0.72200
O400        O  0.49095901  0.07545248  0.70135204    -0.72400
V401        V  0.47905687  0.06328972  0.66500693     1.35200
V402        V  0.48447110  0.08857444  0.67902900     1.35200
C403        C  0.48881128  0.05777215  0.70216616     0.77100
C404        C  0.47448515  0.09442049  0.64210593     0.77100
C405        C  0.51604726  0.07391506  0.66194327     0.77000
C406        C  0.44730303  0.07775205  0.68155205     0.77000
O407        O  0.67789430  0.04480047  0.54217723    -0.72200
O408        O  0.63418639  0.05541865  0.57168282    -0.72400
O409        O  0.66415970  0.07504033  0.56039332    -0.72200
O410        O  0.64757485  0.02505253  0.55309613    -0.72200
O411        O  0.66105818  0.01648903  0.57925091    -0.72200
O412        O  0.68039051  0.06632076  0.58486296    -0.72200
O413        O  0.64975835  0.04780437  0.59693666    -0.72200
O414        O  0.69206214  0.03481670  0.56741299    -0.72400
V415        V  0.65623966  0.04986916  0.55730185     1.35200
V416        V  0.67055917  0.04150497  0.58160752     1.35200
C417        C  0.69246702  0.03793780  0.54988884     0.77100
C418        C  0.63475755  0.05374191  0.58946590     0.77100
C419        C  0.67502916  0.07928391  0.57379777     0.77000
C420        C  0.65109974  0.01234163  0.56504386     0.77000
O421        O  0.48295090  0.84732643  0.03481869    -0.72200
O422        O  0.45478014  0.89171884  0.04608442    -0.72400
O423        O  0.46513664  0.86083286  0.06522372    -0.72200
O424        O  0.47273667  0.87862568  0.01575441    -0.72200
O425        O  0.44608460  0.86633716  0.00706437    -0.72200
O426        O  0.44058203  0.84499480  0.05604196    -0.72200
O427        O  0.42892304  0.87691206  0.03909199    -0.72200
O428        O  0.45750840  0.83419125  0.02403468    -0.72400
V429        V  0.46843579  0.86931383  0.04027361     1.35200
V430        V  0.44376863  0.85583867  0.03168691     1.35200
C431        C  0.47494902  0.83311402  0.02753089     0.77100
C432        C  0.43698026  0.89180662  0.04468864     0.77100
C433        C  0.45176687  0.84975931  0.06909057     0.77000
C434        C  0.46032079  0.87640860  0.00322221     0.77000
O435        O  0.33570046  0.04317612  0.03754164    -0.72200
O436        O  0.38014741  0.05772530  0.06371977    -0.72400
O437        O  0.36761527  0.02576340  0.04813367    -0.72200
O438        O  0.34863821  0.07532881  0.05292541    -0.72200
O439        O  0.33579327  0.06810998  0.07977807    -0.72200
O440        O  0.35417144  0.01763483  0.07441926    -0.72200
O441        O  0.36696068  0.04965272  0.09017697    -0.72200
O442        O  0.32241721  0.03626097  0.06429370    -0.72400
V443        V  0.35771752  0.05031516  0.05108007     1.35200
V444        V  0.34505208  0.04299671  0.07663121     1.35200
C445        C  0.32134258  0.03761802  0.04657774     0.77100
C446        C  0.38104161  0.05620694  0.08148150     0.77100
C447        C  0.36454487  0.01330375  0.06048911     0.77000
C448        C  0.33943331  0.08040481  0.06730382     0.77000
O449        O  0.48564714  0.99923561  0.84163346    -0.72200
O450        O  0.47282872  0.97052925  0.88510483    -0.72400
O451        O  0.50352308  0.98900173  0.87367535    -0.72200
O452        O  0.45499931  0.98093383  0.85339334    -0.72200
O453        O  0.46482164  0.95552594  0.83937257    -0.72200
O454        O  0.51368063  0.96357694  0.85991323    -0.72200
O455        O  0.48265742  0.94515758  0.87101383    -0.72200
O456        O  0.49577427  0.97376362  0.82795537    -0.72400
V457        V  0.47948631  0.98445647  0.86316107     1.35200
V458        V  0.48908855  0.96002105  0.84982505     1.35200
C459        C  0.49236545  0.99123211  0.82715114     0.77100
C460        C  0.47559320  0.95289275  0.88541964     0.77100
C461        C  0.51674306  0.97744447  0.87073206     0.77000
C462        C  0.45156852  0.96693223  0.84294409     0.77000
O463        O  0.52867665  0.04815310  0.18429071    -0.72200
O464        O  0.54446059  0.07603323  0.14114989    -0.72400
O465        O  0.56086977  0.06373796  0.17270817    -0.72200
O466        O  0.51217328  0.06018660  0.15221658    -0.72200
O467        O  0.50414193  0.08648395  0.16573209    -0.72200
O468        O  0.55325295  0.08973749  0.18703540    -0.72200
O469        O  0.53699916  0.10206949  0.15547253    -0.72200
O470        O  0.52046129  0.07431889  0.19793559    -0.72400
V471        V  0.53632127  0.06250937  0.16289723     1.35200
V472        V  0.52879429  0.08761253  0.17632520     1.35200
C473        C  0.52230495  0.05660718  0.19868345     0.77100
C474        C  0.54361065  0.09388394  0.14110907     0.77100
C475        C  0.56554532  0.07742969  0.18301708     0.77000
C476        C  0.50006191  0.07294861  0.15482155     0.77000
O477        O  0.53594845  0.19500665  0.99344628    -0.72200
O478        O  0.56683853  0.15386070  0.97776356    -0.72400
O479        O  0.54961921  0.16380256  0.00992584    -0.72200
O480        O  0.55289848  0.18476696  0.96120918    -0.72200
O481        O  0.57874904  0.19923242  0.96891843    -0.72200
O482        O  0.57376128  0.18029066  0.01898882    -0.72200
O483        O  0.59149911  0.16905743  0.98765876    -0.72200
O484        O  0.56118696  0.21096772  0.00025299    -0.72400
V485        V  0.55178221  0.17467706  0.98577932     1.35200
V486        V  0.57579077  0.18962868  0.99383333     1.35200
C487        C  0.54345773  0.21022199  0.99901238     0.77100
C488        C  0.58450565  0.15445390  0.98027709     0.77100
C489        C  0.56108617  0.16827834  0.02275986     0.77000
C490        C  0.56660734  0.19508585  0.95651147     0.77000
O491        O  0.68696574  0.00590072  0.98164981    -0.72200
O492        O  0.64038917  0.99546856  0.95726696    -0.72400
O493        O  0.67037770  0.97493279  0.96756511    -0.72200
O494        O  0.65687096  0.02630661  0.97161420    -0.72200
O495        O  0.66850729  0.03184506  0.94378895    -0.72200
O496        O  0.68433946  0.98056377  0.94088464    -0.72200
O497        O  0.65384464  0.99996734  0.93011397    -0.72200
O498        O  0.69953461  0.01252562  0.95450449    -0.72400
V499        V  0.66392453  0.00077110  0.96900727     1.35200
V500        V  0.67636818  0.00614290  0.94287120     1.35200
C501        C  0.70120094  0.01103978  0.97218527     0.77100
C502        C  0.63925962  0.99582199  0.93944809     0.77100
C503        C  0.67956558  0.96889595  0.95355306     0.77000
C504        C  0.65983035  0.03769575  0.95825251     0.77000
O505        O  0.97642205  0.20228669  0.02841191    -0.72200
O506        O  0.95366905  0.15435938  0.03707292    -0.72400
O507        O  0.96770557  0.17243281  0.00707304    -0.72200
O508        O  0.96286738  0.18403651  0.05869809    -0.72200
O509        O  0.93582834  0.19738565  0.05343061    -0.72200
O510        O  0.93947238  0.18302268  0.00167382    -0.72200
O511        O  0.92614261  0.16716086  0.03309706    -0.72200
O512        O  0.94885224  0.21401604  0.02203213    -0.72400
V513        V  0.96464521  0.17854703  0.03270750     1.35200
V514        V  0.93813017  0.19022742  0.02761330     1.35200
C515        C  0.96639688  0.21633276  0.02379925     0.77100
C516        C  0.93588880  0.15272106  0.03667956     0.77100
C517        C  0.95426963  0.17495480  0.99573305     0.77000
C518        C  0.94862933  0.19266805  0.06496704     0.77000
O519        O  0.83954466  0.99856690  0.03109091    -0.72200
O520        O  0.88155849  0.98509922  0.06184675    -0.72400
O521        O  0.85045525  0.96769913  0.05001524    -0.72200
O522        O  0.87119268  0.01605412  0.04261935    -0.72200
O523        O  0.85731070  0.02614143  0.06799657    -0.72200
O524        O  0.83433593  0.97793483  0.07400068    -0.72200
O525        O  0.86591698  0.99429198  0.08652421    -0.72200
O526        O  0.82541912  0.00990921  0.05579853    -0.72400
V527        V  0.86037388  0.99210529  0.04682681     1.35200
V528        V  0.84602296  0.00190136  0.07058853     1.35200
C529        C  0.82526789  0.00652078  0.03833362     0.77100
C530        C  0.88064054  0.98708045  0.07958322     0.77100
C531        C  0.83905555  0.96445994  0.06327000     0.77000
C532        C  0.86824264  0.02923736  0.05420619     0.77000
O533        O  0.02714666  0.99433007  0.18392422    -0.72200
O534        O  0.03715648  0.96635850  0.13906825    -0.72400
O535        O  0.00651649  0.98200607  0.15463618    -0.72200
O536        O  0.05793198  0.97887800  0.16797097    -0.72200
O537        O  0.05249626  0.95297470  0.18342211    -0.72200
O538        O  0.00097363  0.95534084  0.16875716    -0.72200
O539        O  0.03228353  0.94030446  0.15444928    -0.72200
O540        O  0.02137787  0.96807062  0.19867476    -0.72400
V541        V  0.03205530  0.97991645  0.16173188     1.35200
V542        V  0.02680933  0.95474995  0.17612228     1.35200
C543        C  0.02286933  0.98583546  0.19904853     0.77100
C544        C  0.03658757  0.94848739  0.13924336     0.77100
C545        C  0.99520163  0.96887118  0.15863467     0.77000
C546        C  0.06409544  0.96524824  0.17762870     0.77000
O547        O  0.03287204  0.84759972  0.98771139    -0.72200
O548        O  0.06353911  0.89064550  0.97697510    -0.72400
O549        O  0.05177373  0.86061984  0.95772460    -0.72200
O550        O  0.04416170  0.87818609  0.00699216    -0.72200
O551        O  0.06914032  0.86339176  0.01668025    -0.72200
O552        O  0.07632969  0.84460736  0.96662179    -0.72200
O553        O  0.08815667  0.87488884  0.98608413    -0.72200
O554        O  0.05777884  0.83269651  0.99741666    -0.72400
V555        V  0.04854692  0.86892897  0.98258198     1.35200
V556        V  0.07235770  0.85415447  0.99154522     1.35200
C557        C  0.04028094  0.83269815  0.99426662     0.77100
C558        C  0.08120209  0.88994392  0.97961568     0.77100
C559        C  0.06533966  0.84995100  0.95358469     0.77000
C560        C  0.05542184  0.87432011  0.02016847     0.77000
O561        O  0.18348243  0.03900303  0.98644647    -0.72200
O562        O  0.13833999  0.04949577  0.95949812    -0.72400
O563        O  0.15399324  0.01859735  0.97471340    -0.72200
O564        O  0.16760841  0.07009526  0.97152201    -0.72200
O565        O  0.18271631  0.06464332  0.94544295    -0.72200
O566        O  0.16738575  0.01306564  0.94769611    -0.72200
O567        O  0.15322312  0.04483858  0.93312161    -0.72200
O568        O  0.19760542  0.03295111  0.95991925    -0.72400
V569        V  0.16115788  0.04417594  0.97254390     1.35200
V570        V  0.17501758  0.03892625  0.94709918     1.35200
C571        C  0.19828512  0.03429272  0.97766424     0.77100
C572        C  0.13822573  0.04916212  0.94164088     0.77100
C573        C  0.15782745  0.00717788  0.96160607     0.77000
C574        C  0.17727228  0.07627345  0.95788266     0.77000
O575        O  0.98711184  0.04530340  0.84169940    -0.72200
O576        O  0.97508574  0.07682759  0.88367753    -0.72400
O577        O  0.95677464  0.06445710  0.85324084    -0.72200
O578        O  0.00548812  0.05724925  0.87260994    -0.72200
O579        O  0.01556200  0.08201816  0.85764725    -0.72200
O580        O  0.96636992  0.08860904  0.83698115    -0.72200
O581        O  0.98462837  0.10114697  0.86765262    -0.72200
O582        O  0.99747135  0.06992049  0.82668703    -0.72400
V583        V  0.98136207  0.06140916  0.86249816     1.35200
V584        V  0.99083993  0.08493717  0.84753111     1.35200
C585        C  0.99408454  0.05245923  0.82687013     0.77100
C586        C  0.97771420  0.09448477  0.88263420     0.77100
C587        C  0.95313661  0.07765927  0.84191849     0.77000
C588        C  0.01875040  0.06848415  0.86887174     0.77000
O589        O  0.02339486  0.04746107  0.33767977    -0.72200
O590        O  0.03321781  0.07460211  0.38296184    -0.72400
O591        O  0.00282525  0.05823281  0.36767374    -0.72200
O592        O  0.05376293  0.06359601  0.35329485    -0.72200
O593        O  0.04688338  0.08891975  0.33748051    -0.72200
O594        O  0.99628161  0.08555327  0.35540406    -0.72200
O595        O  0.02839393  0.10094952  0.36807477    -0.72200
O596        O  0.01507347  0.07359788  0.32402783    -0.72400
V597        V  0.02812661  0.06146150  0.36009675     1.35200
V598        V  0.02168280  0.08672385  0.34645499     1.35200
C599        C  0.01781875  0.05598660  0.32301367     0.77100
C600        C  0.03296515  0.09247313  0.38306447     0.77100
C601        C  0.99108334  0.07130477  0.36487818     0.77000
C602        C  0.05908648  0.07709805  0.34297626     0.77000
O603        O  0.83131728  0.04232946  0.49018160    -0.72200
O604        O  0.87485332  0.05507166  0.46098540    -0.72400
O605        O  0.84417730  0.07344009  0.47331768    -0.72200
O606        O  0.86246946  0.02388057  0.47833213    -0.72200
O607        O  0.84766285  0.01535071  0.45292937    -0.72200
O608        O  0.82938930  0.06572929  0.44765266    -0.72200
O609        O  0.85981714  0.04664512  0.43569718    -0.72200
O610        O  0.81682651  0.03431119  0.46444512    -0.72400
V611        V  0.85289768  0.04846705  0.47523870     1.35200
V612        V  0.83869104  0.04064991  0.45069650     1.35200
C613        C  0.81645684  0.03657787  0.48208093     0.77100
C614        C  0.87466325  0.05288484  0.44323395     0.77100
C615        C  0.83379873  0.07817227  0.45970403     0.77000
C616        C  0.85869290  0.01127252  0.46636892     0.77000
O617        O  0.97573826  0.84668499  0.49573729    -0.72200
O618        O  0.94721109  0.88945656  0.48046167    -0.72400
O619        O  0.96393873  0.87861200  0.51224057    -0.72200
O620        O  0.95920568  0.85788538  0.46371557    -0.72200
O621        O  0.93271980  0.84469518  0.47160595    -0.72200
O622        O  0.93879207  0.86384745  0.52157163    -0.72200
O623        O  0.92160348  0.87570242  0.49010007    -0.72200
O624        O  0.94974820  0.83215442  0.50298397    -0.72400
V625        V  0.96103048  0.86783101  0.48824015     1.35200
V626        V  0.93623537  0.85429235  0.49647298     1.35200
C627        C  0.96748414  0.83189803  0.50137184     0.77100
C628        C  0.92954134  0.88995408  0.48293287     0.77100
C629        C  0.95208974  0.87527337  0.52506823     0.77000
C630        C  0.94495399  0.84833290  0.45909400     0.77000
O631        O  0.02957268  0.19210181  0.53410952    -0.72200
O632        O  0.05994632  0.14983696  0.54797378    -0.72400
O633        O  0.04711955  0.18055997  0.56551884    -0.72200
O634        O  0.04194721  0.16088438  0.51648732    -0.72200
O635        O  0.06753616  0.17509097  0.50752648    -0.72200
O636        O  0.07169065  0.19664578  0.55684814    -0.72200
O637        O  0.08488372  0.16563890  0.53986036    -0.72200
O638        O  0.05476091  0.20656043  0.52440548    -0.72400
V639        V  0.04511070  0.17114533  0.54078831     1.35200
V640        V  0.06921595  0.18571352  0.53229508     1.35200
C641        C  0.03717204  0.20663886  0.52698648     0.77100
C642        C  0.07773954  0.15082004  0.54663788     0.77100
C643        C  0.06027902  0.19173144  0.56973097     0.77000
C644        C  0.05385501  0.16423851  0.50369027     0.77000
O645        O  0.18094672  0.00558032  0.54457581    -0.72200
O646        O  0.13534178  0.99391946  0.57035703    -0.72400
O647        O  0.15124362  0.02525092  0.55650057    -0.72200
O648        O  0.16500748  0.97389590  0.55806941    -0.72200
O649        O  0.18038667  0.97864557  0.58410787    -0.72200
O650        O  0.16340553  0.02968642  0.58427992    -0.72200
O651        O  0.14996624  0.99672815  0.59712249    -0.72200
O652        O  0.19437072  0.01147807  0.57147915    -0.72400
V653        V  0.15842114  0.99972775  0.55789228     1.35200
V654        V  0.17180902  0.00408921  0.58372293     1.35200
C655        C  0.19537723  0.01071673  0.55370927     0.77100
C656        C  0.13500811  0.99313776  0.58819943     0.77100
C657        C  0.15447454  0.03609564  0.57020842     0.77000
C658        C  0.17507588  0.96744649  0.57124890     0.77000
O659        O  0.98210756  0.99493193  0.68875866    -0.72200
O660        O  0.97130145  0.96865876  0.64329101    -0.72400
O661        O  0.95183128  0.97787056  0.67418112    -0.72200
O662        O  0.00167275  0.98601121  0.65755157    -0.72200
O663        O  0.00996173  0.95864854  0.66855115    -0.72200
O664        O  0.96077607  0.95287785  0.68950920    -0.72200
O665        O  0.97764563  0.94221962  0.65743707    -0.72200
O666        O  0.99295003  0.96897706  0.70090446    -0.72400
V667        V  0.97693704  0.98139791  0.66620944     1.35200
V668        V  0.98522962  0.95616971  0.67885519     1.35200
C669        C  0.98938932  0.98634345  0.70261437     0.77100
C670        C  0.97201607  0.95081788  0.64289269     0.77100
C671        C  0.94779055  0.96421662  0.68486745     0.77000
C672        C  0.01419246  0.97351703  0.65956318     0.77000
O673        O  0.73242944  0.59986183  0.78826879    -0.72200
O674        O  0.71877688  0.64421062  0.81526975    -0.72400
O675        O  0.75042029  0.63144216  0.79879494    -0.72200
O676        O  0.70086174  0.61285625  0.80445874    -0.72200
O677        O  0.70905144  0.59813269  0.83003992    -0.72200
O678        O  0.75813890  0.61943458  0.82591176    -0.72200
O679        O  0.72539504  0.62996931  0.84156929    -0.72200
O680        O  0.74181858  0.58702698  0.81443801    -0.72400
V681        V  0.72581024  0.62182078  0.80218683     1.35200
V682        V  0.73350486  0.60885229  0.82745360     1.35200
C683        C  0.73946866  0.58584996  0.79681029     0.77100
C684        C  0.71934390  0.64443299  0.83312368     0.77100
C685        C  0.76257286  0.62913058  0.81157944     0.77000
C686        C  0.69640792  0.60245892  0.81821464     0.77000
O687        O  0.92473196  0.75106739  0.78655570    -0.72200
O688        O  0.88117307  0.72143352  0.79712853    -0.72400
O689        O  0.91077371  0.73338447  0.81690375    -0.72200
O690        O  0.89451435  0.73918989  0.76670383    -0.72200
O691        O  0.90916828  0.71354495  0.75857940    -0.72200
O692        O  0.92679573  0.70844143  0.80908701    -0.72200
O693        O  0.89674990  0.69614658  0.78956750    -0.72200
O694        O  0.93959381  0.72571023  0.77793469    -0.72400
V695        V  0.90315854  0.73581935  0.79160976     1.35200
V696        V  0.91784654  0.71148010  0.78393293     1.35200
C697        C  0.93970594  0.74332530  0.78064415     0.77100
C698        C  0.88159857  0.70369344  0.79510520     0.77100
C699        C  0.92126820  0.71985604  0.82166743     0.77000
C700        C  0.89823238  0.72698937  0.75427860     0.77000
O701        O  0.58621996  0.79424346  0.74117687    -0.72200
O702        O  0.62784566  0.82403696  0.72444181    -0.72400
O703        O  0.61810433  0.80761071  0.75697351    -0.72200
O704        O  0.59640204  0.81038440  0.70846914    -0.72200
O705        O  0.58207437  0.83633310  0.71620420    -0.72200
O706        O  0.60262247  0.83257316  0.76568154    -0.72200
O707        O  0.61289432  0.84919521  0.73347962    -0.72200
O708        O  0.57128176  0.81997676  0.74847892    -0.72400
V709        V  0.60682381  0.80951096  0.73295930     1.35200
V710        V  0.59247473  0.83397966  0.74083388     1.35200
C711        C  0.57141994  0.80223801  0.74721988     0.77100
C712        C  0.62741044  0.84181077  0.72635277     0.77100
C713        C  0.61444120  0.81973433  0.76948484     0.77000
C714        C  0.58597786  0.82404486  0.70383397     0.77000
O715        O  0.72717118  0.79218827  0.93798740    -0.72200
O716        O  0.70203841  0.80635435  0.89274660    -0.72400
O717        O  0.71286232  0.82427241  0.92415658    -0.72200
O718        O  0.71652126  0.77439567  0.90612164    -0.72200
O719        O  0.68959366  0.76734486  0.91888633    -0.72200
O720        O  0.68588734  0.81787122  0.93715343    -0.72200
O721        O  0.67518276  0.79967621  0.90585883    -0.72200
O722        O  0.70018130  0.78548580  0.95079526    -0.72400
V723        V  0.71415006  0.79912168  0.91557272     1.35200
V724        V  0.68826325  0.79267772  0.92799696     1.35200
C725        C  0.71787650  0.78680736  0.95226708     0.77100
C726        C  0.68426071  0.80533574  0.89161345     0.77100
C727        C  0.69866166  0.82978025  0.93335364     0.77000
C728        C  0.70342241  0.76260924  0.90860716     0.77000
O729        O  0.77832413  0.75179492  0.59089716    -0.72200
O730        O  0.80665345  0.73826342  0.63437977    -0.72400
O731        O  0.78895805  0.76945097  0.62267311    -0.72200
O732        O  0.79595727  0.72047909  0.60287370    -0.72200
O733        O  0.82185073  0.72956603  0.58926666    -0.72200
O734        O  0.81448255  0.77899424  0.60869594    -0.72200
O735        O  0.83225683  0.74775734  0.62050328    -0.72200
O736        O  0.80415188  0.76057853  0.57694484    -0.72400
V737        V  0.79294809  0.74520886  0.61240096     1.35200
V738        V  0.81764708  0.75411176  0.59908400     1.35200
C739        C  0.78652592  0.75808315  0.57633907     0.77100
C740        C  0.82433001  0.74064911  0.63479567     0.77100
C741        C  0.80066965  0.78247407  0.61946343     0.77000
C742        C  0.81028850  0.71652154  0.59306785     0.77000
O743        O  0.77511965  0.94579216  0.74032386    -0.72200
O744        O  0.78444702  0.90070693  0.71273075    -0.72400
O745        O  0.80571112  0.92918373  0.72552232    -0.72200
O746        O  0.75388113  0.91697660  0.72771691    -0.72200
O747        O  0.75009862  0.92861409  0.69959321    -0.72200
O748        O  0.80021947  0.94740977  0.70148119    -0.72200
O749        O  0.78338458  0.91692509  0.68675102    -0.72200
O750        O  0.76686300  0.95953863  0.71422264    -0.72400
V751        V  0.77967964  0.92345371  0.72616114     1.35200
V752        V  0.77519060  0.93791222  0.70099830     1.35200
C753        C  0.76918645  0.96036725  0.73186750     0.77100
C754        C  0.78593201  0.90130694  0.69493649     0.77100
C755        C  0.81171979  0.94075509  0.71338771     0.77000
C756        C  0.74350873  0.91956740  0.71348797     0.77000
O757        O  0.23130655  0.79410627  0.59063820    -0.72200
O758        O  0.19942947  0.80948098  0.63129718    -0.72400
O759        O  0.21838188  0.77799523  0.62254235    -0.72200
O760        O  0.21273737  0.82565800  0.59981423    -0.72200
O761        O  0.18698377  0.81640347  0.58610727    -0.72200
O762        O  0.19518979  0.76689872  0.60595705    -0.72200
O763        O  0.17549724  0.79733605  0.61659980    -0.72200
O764        O  0.20638595  0.78596176  0.57483057    -0.72400
V765        V  0.21502177  0.80157168  0.61077475     1.35200
V766        V  0.19151124  0.79177991  0.59612092     1.35200
C767        C  0.22402300  0.78817849  0.57544351     0.77100
C768        C  0.18195287  0.80576232  0.63086641     0.77100
C769        C  0.20783179  0.76431167  0.61833242     0.77000
C770        C  0.19868857  0.82944869  0.58961422     0.77000
O771        O  0.23683403  0.60075405  0.73952271    -0.72200
O772        O  0.22566310  0.64526156  0.71141941    -0.72400
O773        O  0.20638179  0.61474207  0.72255707    -0.72200
O774        O  0.25624091  0.63173653  0.72862101    -0.72200
O775        O  0.26441570  0.61788295  0.70254426    -0.72200
O776        O  0.21425311  0.60007132  0.69682874    -0.72200
O777        O  0.23330126  0.63065398  0.68560658    -0.72200
O778        O  0.24533369  0.58678877  0.71362696    -0.72400
V779        V  0.23149594  0.62281437  0.72505905     1.35200
V780        V  0.23922681  0.60907985  0.70019145     1.35200
C781        C  0.24252542  0.58598514  0.73121297     0.77100
C782        C  0.22747174  0.64545143  0.69363822     0.77100
C783        C  0.20174149  0.60460921  0.70871427     0.77000
C784        C  0.26861800  0.62849476  0.71625701     0.77000
O785        O  0.28630597  0.74829723  0.93524535    -0.72200
O786        O  0.31388840  0.73674848  0.89035835    -0.72400
O787        O  0.30162563  0.71711766  0.92010367    -0.72200
O788        O  0.29821687  0.76805719  0.90497802    -0.72200
O789        O  0.32577576  0.77372743  0.91705466    -0.72200
O790        O  0.32631562  0.72368955  0.93698845    -0.72200
O791        O  0.33990368  0.74065533  0.90599328    -0.72200
O792        O  0.31241441  0.75690918  0.94866277    -0.72400
V793        V  0.30045052  0.74272938  0.91296845     1.35200
V794        V  0.32558666  0.74866181  0.92694977     1.35200
C795        C  0.29479627  0.75457880  0.94967878     0.77100
C796        C  0.33175300  0.73639242  0.89076399     0.77100
C797        C  0.31439901  0.71169922  0.93120868     0.77000
C798        C  0.31175501  0.77932703  0.90752956     0.77000
O799        O  0.43417508  0.74444839  0.74294214    -0.72200
O800        O  0.38879594  0.71968446  0.72835215    -0.72400
O801        O  0.40304552  0.73274336  0.76086343    -0.72200
O802        O  0.41973648  0.73182855  0.71026338    -0.72200
O803        O  0.43365646  0.70498586  0.71517212    -0.72200
O804        O  0.41521574  0.70501181  0.76570817    -0.72200
O805        O  0.40263679  0.69267034  0.73250920    -0.72200
O806        O  0.44697272  0.71707231  0.74825205    -0.72400
V807        V  0.41170674  0.73167284  0.73571570     1.35200
V808        V  0.42440267  0.70550457  0.74037820     1.35200
C809        C  0.44838251  0.73479227  0.74776834     0.77100
C810        C  0.38813573  0.70182404  0.72788755     0.77100
C811        C  0.40577895  0.71893087  0.77174575     0.77000
C812        C  0.42940902  0.71825715  0.70398179     0.77000
O813        O  0.07921399  0.80159582  0.78016310    -0.72200
O814        O  0.12583978  0.82698605  0.78706094    -0.72400
O815        O  0.09770394  0.81614373  0.80953001    -0.72200
O816        O  0.10762314  0.81215308  0.75744178    -0.72200
O817        O  0.09665860  0.84044157  0.75302078    -0.72200
O818        O  0.08108884  0.84140550  0.80442972    -0.72200
O819        O  0.11126360  0.85386823  0.78524450    -0.72200
O820        O  0.06605617  0.82817978  0.77251778    -0.72400
V821        V  0.10232307  0.81470621  0.78338996     1.35200
V822        V  0.08898790  0.84049784  0.77881682     1.35200
C823        C  0.06460484  0.81060574  0.77528790     0.77100
C824        C  0.12635097  0.84481233  0.78809203     0.77100
C825        C  0.08731151  0.82913286  0.81580960     0.77000
C826        C  0.10476042  0.82591250  0.74651312     0.77000
O827        O  0.28077819  0.93764864  0.78204723    -0.72200
O828        O  0.29543518  0.89548009  0.81229601    -0.72400
O829        O  0.26351422  0.90631530  0.79495398    -0.72200
O830        O  0.31262776  0.92645873  0.79913389    -0.72200
O831        O  0.30466331  0.94045342  0.82519455    -0.72200
O832        O  0.25444292  0.92246520  0.81934057    -0.72200
O833        O  0.28546592  0.91031682  0.83716413    -0.72200
O834        O  0.27383312  0.95306990  0.80759227    -0.72400
V835        V  0.28786779  0.91676260  0.79755869     1.35200
V836        V  0.27971830  0.93130306  0.82180394     1.35200
C837        C  0.27547639  0.95283036  0.78986175     0.77100
C838        C  0.29287114  0.89579609  0.82998970     0.77100
C839        C  0.25058551  0.91082807  0.80635546     0.77000
C840        C  0.31719665  0.93648235  0.81310741     0.77000
O841        O  0.08270623  0.75055147  0.28350991    -0.72200
O842        O  0.12905298  0.72424126  0.29144907    -0.72400
O843        O  0.11234980  0.74072557  0.26177858    -0.72200
O844        O  0.09974733  0.73439506  0.31324778    -0.72200
O845        O  0.08519131  0.70825889  0.30674148    -0.72200
O846        O  0.09951168  0.71374309  0.25504579    -0.72200
O847        O  0.11474536  0.69781216  0.28560299    -0.72200
O848        O  0.06922040  0.72397671  0.27638719    -0.72400
V849        V  0.10566593  0.73698867  0.28733517     1.35200
V850        V  0.09238364  0.71150991  0.28099742     1.35200
C851        C  0.06793808  0.74155257  0.27904006     0.77100
C852        C  0.12967220  0.70641703  0.29002410     0.77100
C853        C  0.10887440  0.72804620  0.24977099     0.77000
C854        C  0.09037448  0.72032004  0.31886895     0.77000
O855        O  0.28142793  0.60323023  0.28740591    -0.72200
O856        O  0.29334357  0.64727756  0.31619009    -0.72400
O857        O  0.31169148  0.61594288  0.30604333    -0.72200
O858        O  0.26309080  0.63521851  0.29711209    -0.72200
O859        O  0.25259122  0.62162260  0.32247652    -0.72200
O860        O  0.30197176  0.60178356  0.33140160    -0.72200
O861        O  0.28318890  0.63303909  0.34133789    -0.72200
O862        O  0.27107330  0.58978113  0.31290572    -0.72400
V863        V  0.28713911  0.62510219  0.30214296     1.35200
V864        V  0.27737477  0.61177632  0.32650582     1.35200
C865        C  0.27438773  0.58886957  0.29544768     0.77100
C866        C  0.29031825  0.64750616  0.33381821     0.77100
C867        C  0.31535627  0.60593306  0.32026954     0.77000
C868        C  0.24968481  0.63234250  0.30844680     0.77000
O869        O  0.23664771  0.75226512  0.09081867    -0.72200
O870        O  0.20595003  0.74167517  0.13419756    -0.72400
O871        O  0.21841753  0.72203928  0.10444196    -0.72200
O872        O  0.22475145  0.77196995  0.12125084    -0.72200
O873        O  0.19996990  0.78092284  0.10570354    -0.72200
O874        O  0.19333726  0.73010426  0.08886755    -0.72200
O875        O  0.18134637  0.75068084  0.11837197    -0.72200
O876        O  0.21141664  0.76058110  0.07566814    -0.72400
V877        V  0.22099551  0.74721192  0.11236005     1.35200
V878        V  0.19703804  0.75541559  0.09742031     1.35200
C879        C  0.22898440  0.75787109  0.07563185     0.77100
C880        C  0.18828923  0.74451222  0.13352925     0.77100
C881        C  0.20479524  0.71738310  0.09406488     0.77000
C882        C  0.21335098  0.78489875  0.11685894     0.77000
O883        O  0.28720795  0.79291949  0.44020384    -0.72200
O884        O  0.31199628  0.80743699  0.39485792    -0.72400
O885        O  0.29806558  0.77519362  0.40880263    -0.72200
O886        O  0.30065929  0.82526747  0.42609873    -0.72200
O887        O  0.32736428  0.81954819  0.43990465    -0.72200
O888        O  0.32573337  0.76924962  0.42051807    -0.72200
O889        O  0.33906267  0.80252475  0.40827542    -0.72200
O890        O  0.31435512  0.78644442  0.45282452    -0.72400
V891        V  0.30002688  0.80007502  0.41776075     1.35200
V892        V  0.32610393  0.79447818  0.43017054     1.35200
C893        C  0.29663865  0.78741475  0.45431361     0.77100
C894        C  0.32982820  0.80766143  0.39395701     0.77100
C895        C  0.31146803  0.76379391  0.41123926     0.77000
C896        C  0.31430876  0.83106985  0.43587994     0.77000
O897        O  0.42494782  0.79473186  0.24070475    -0.72200
O898        O  0.38189917  0.82441584  0.22819007    -0.72400
O899        O  0.41135784  0.81062730  0.20927260    -0.72200
O900        O  0.39491059  0.80825263  0.25974300    -0.72200
O901        O  0.40867500  0.83491557  0.26584802    -0.72200
O902        O  0.42902594  0.83473928  0.21607246    -0.72200
O903        O  0.39855066  0.84976353  0.23248051    -0.72200
O904        O  0.43955928  0.82026469  0.24919900    -0.72400
V905        V  0.40358907  0.80994926  0.23467507     1.35200
V906        V  0.41866431  0.83443376  0.24083424     1.35200
C907        C  0.43974340  0.80261052  0.24688143     0.77100
C908        C  0.38317326  0.84223919  0.22765186     0.77100
C909        C  0.42311582  0.82290379  0.20408417     0.77000
C910        C  0.39822075  0.82145183  0.27122067     0.77000
O911        O  0.23786708  0.95160715  0.23340903    -0.72200
O912        O  0.22604252  0.90718236  0.20564814    -0.72400
O913        O  0.25664173  0.92038882  0.22295884    -0.72200
O914        O  0.20707452  0.93806961  0.21622424    -0.72200
O915        O  0.21513037  0.95153798  0.18990876    -0.72200
O916        O  0.26558340  0.93454149  0.19730407    -0.72200
O917        O  0.23497950  0.92107883  0.17984405    -0.72200
O918        O  0.24553119  0.96570944  0.20728256    -0.72400
V919        V  0.23210272  0.92964350  0.21907617     1.35200
V920        V  0.24022466  0.94302060  0.19413086     1.35200
C921        C  0.24315040  0.96640821  0.22493368     0.77100
C922        C  0.22859448  0.90656362  0.18797746     0.77100
C923        C  0.26941298  0.92376195  0.21104296     0.77000
C924        C  0.20244401  0.94733910  0.20175559     0.77000
O925        O  0.58691392  0.24984828  0.78312186    -0.72200
O926        O  0.63161130  0.22335443  0.79694573    -0.72400
O927        O  0.61893082  0.23937818  0.76537158    -0.72200
O928        O  0.60009505  0.23411047  0.81474488    -0.72200
O929        O  0.58697102  0.20747263  0.80723044    -0.72200
O930        O  0.60583774  0.21295848  0.75711464    -0.72200
O931        O  0.61817952  0.19697427  0.78905380    -0.72200
O932        O  0.57383213  0.22319099  0.77557154    -0.72400
V933        V  0.60908894  0.23618508  0.78982817     1.35200
V934        V  0.59641074  0.21070813  0.78229221     1.35200
C935        C  0.57248263  0.24082296  0.77773184     0.77100
C936        C  0.63237041  0.20555698  0.79546451     0.77100
C937        C  0.61636124  0.22683242  0.75302954     0.77000
C938        C  0.59065535  0.21983233  0.81958576     0.77000
O939        O  0.73821909  0.44646420  0.73950977    -0.72200
O940        O  0.72681346  0.40180207  0.71180622    -0.72400
O941        O  0.75753828  0.41566404  0.72866311    -0.72200
O942        O  0.70739443  0.43226856  0.72296593    -0.72200
O943        O  0.71495839  0.44688885  0.69712547    -0.72200
O944        O  0.76549887  0.42944518  0.70248249    -0.72200
O945        O  0.73414491  0.41637893  0.68587590    -0.72200
O946        O  0.74630898  0.46032122  0.71341410    -0.72400
V947        V  0.73267360  0.42435374  0.72525263     1.35200
V948        V  0.74010199  0.43800764  0.70024676     1.35200
C949        C  0.74404855  0.46110023  0.73105669     0.77100
C950        C  0.72846847  0.40158723  0.69401328     0.77100
C951        C  0.76997695  0.41923397  0.71644050     0.77000
C952        C  0.70251375  0.44228471  0.70909646     0.77000
O953        O  0.73801992  0.25085263  0.58911868    -0.72200
O954        O  0.71124560  0.24055064  0.63473832    -0.72400
O955        O  0.72116730  0.22045075  0.60455435    -0.72200
O956        O  0.72826670  0.27080617  0.62006476    -0.72200
O957        O  0.70114626  0.27856650  0.60819457    -0.72200
O958        O  0.69603127  0.22856447  0.58902864    -0.72200
O959        O  0.68499697  0.24660147  0.62020647    -0.72200
O960        O  0.71193974  0.26060186  0.57643042    -0.72400
V961        V  0.72424573  0.24585845  0.61177177     1.35200
V962        V  0.69907023  0.25348239  0.59865826     1.35200
C963        C  0.72941761  0.25760449  0.57496496     0.77100
C964        C  0.69340678  0.24142977  0.63501023     0.77100
C965        C  0.70728241  0.21581682  0.59448740     0.77000
C966        C  0.71548682  0.28299359  0.61786635     0.77000
O967        O  0.78104299  0.10108047  0.78472726    -0.72200
O968        O  0.79494318  0.14605234  0.81060087    -0.72400
O969        O  0.81291596  0.11498048  0.79952696    -0.72200
O970        O  0.76306579  0.13277880  0.79556700    -0.72200
O971        O  0.75624737  0.12086595  0.82295986    -0.72200
O972        O  0.80578061  0.10016215  0.82542412    -0.72200
O973        O  0.78937965  0.13206159  0.83728649    -0.72200
O974        O  0.77273726  0.08859290  0.81144310    -0.72400
V975        V  0.78779129  0.12341617  0.79807838     1.35200
V976        V  0.78111959  0.11064499  0.82375207     1.35200
C977        C  0.77467444  0.08706337  0.79381579     0.77100
C978        C  0.79489629  0.14651476  0.82845492     0.77100
C979        C  0.81790827  0.10466827  0.81311122     0.77000
C980        C  0.75139464  0.13068636  0.80884440     0.77000
O981        O  0.93483083  0.30180880  0.74248427    -0.72200
O982        O  0.89070536  0.32996636  0.73074772    -0.72400
O983        O  0.92046204  0.31755958  0.71141014    -0.72200
O984        O  0.90451117  0.31388778  0.76179027    -0.72200
O985        O  0.91768304  0.34073557  0.76839923    -0.72200
O986        O  0.93687622  0.34255813  0.71812351    -0.72200
O987        O  0.90616256  0.35593177  0.73573893    -0.72200
O988        O  0.94884545  0.32775327  0.75075302    -0.72400
V989        V  0.91296015  0.31627929  0.73678805     1.35200
V990        V  0.92715863  0.34124466  0.74316760     1.35200
C991        C  0.94945008  0.31009538  0.74851439     0.77100
C992        C  0.89104465  0.34783189  0.73099676     0.77100
C993        C  0.93135515  0.33054663  0.70610684     0.77000
C994        C  0.90743960  0.32698360  0.77345473     0.77000
O995        O  0.78625036  0.29146542  0.93232570    -0.72200
O996        O  0.81434018  0.31066706  0.89074433    -0.72400
O997        O  0.79969995  0.27717964  0.89968609    -0.72200
O998        O  0.80062105  0.32492347  0.92287505    -0.72200
O999        O  0.82682619  0.31780886  0.93700828    -0.72200
O1000       O  0.82567390  0.26930581  0.91384214    -0.72200
O1001       O  0.84030343  0.30307501  0.90506447    -0.72200
O1002       O  0.81241415  0.28411430  0.94638927    -0.72400
V1003       V  0.80071322  0.30084010  0.91171049     1.35200
V1004       V  0.82577328  0.29365385  0.92533674     1.35200
C1005       C  0.79464488  0.28509752  0.94674933     0.77100
C1006       C  0.83218460  0.31017774  0.89090983     0.77100
C1007       C  0.81268345  0.26530035  0.90227256     0.77000
C1008       C  0.81396289  0.32971249  0.93357743     0.77000
O1009       O  0.27204304  0.09049328  0.72965489    -0.72200
O1010       O  0.28361406  0.13702839  0.70547758    -0.72400
O1011       O  0.25251270  0.12139588  0.72025035    -0.72200
O1012       O  0.30314618  0.10617644  0.71525235    -0.72200
O1013       O  0.29704901  0.09375328  0.68793412    -0.72200
O1014       O  0.24580698  0.10914747  0.69297228    -0.72200
O1015       O  0.27711959  0.12442286  0.67834593    -0.72200
O1016       O  0.26599774  0.07791975  0.70237100    -0.72400
V1017       V  0.27767376  0.11352485  0.71711373     1.35200
V1018       V  0.27154274  0.10151725  0.69094587     1.35200
C1019       C  0.26756547  0.07614585  0.72003907     0.77100
C1020       C  0.28240946  0.13861908  0.68772305     0.77100
C1021       C  0.24059646  0.11822260  0.70745660     0.77000
C1022       C  0.30882228  0.09744339  0.70082432     0.77000
O1023       O  0.08663143  0.24658338  0.74217516    -0.72200
O1024       O  0.12831058  0.21465699  0.73032062    -0.72400
O1025       O  0.09906536  0.22845340  0.71126868    -0.72200
O1026       O  0.11651897  0.23300494  0.76120637    -0.72200
O1027       O  0.10093960  0.20794641  0.76943606    -0.72200
O1028       O  0.08151507  0.20462695  0.71930105    -0.72200
O1029       O  0.11131390  0.19024410  0.73765785    -0.72200
O1030       O  0.07084069  0.22194429  0.75121983    -0.72400
V1031       V  0.10727524  0.23024233  0.73645819     1.35200
V1032       V  0.09144236  0.20668146  0.74426369     1.35200
C1033       C  0.07154360  0.23954699  0.74869064     0.77100
C1034       C  0.12671182  0.19690765  0.73172839     0.77100
C1035       C  0.08754155  0.21574291  0.70665422     0.77000
C1036       C  0.11228849  0.22106249  0.77371687     0.77000
O1037       O  0.28168243  0.29398267  0.59446833    -0.72200
O1038       O  0.31298287  0.30693815  0.63633109    -0.72400
O1039       O  0.30048786  0.32472978  0.60541901    -0.72200
O1040       O  0.29379372  0.27608748  0.62591069    -0.72200
O1041       O  0.31791197  0.26574082  0.61012361    -0.72200
O1042       O  0.32552164  0.31533891  0.59048802    -0.72200
O1043       O  0.33724586  0.29630160  0.62096738    -0.72200
O1044       O  0.30652499  0.28463024  0.57920342    -0.72400
V1045       V  0.29768331  0.30018724  0.61522772     1.35200
V1046       V  0.32129962  0.29067121  0.60047343     1.35200
C1047       C  0.28898469  0.28755170  0.57945747     0.77100
C1048       C  0.33054503  0.30370788  0.63569297     0.77100
C1049       C  0.31416773  0.32849480  0.59469447     0.77000
C1050       C  0.30475844  0.26266598  0.62183294     0.77000
O1051       O  0.43096629  0.29589887  0.78559601    -0.72200
O1052       O  0.38441055  0.32180166  0.79364356    -0.72400
O1053       O  0.40230328  0.30715033  0.76372134    -0.72200
O1054       O  0.41294452  0.31008545  0.81573435    -0.72200
O1055       O  0.42814834  0.33630478  0.81125549    -0.72200
O1056       O  0.41495266  0.33471785  0.75923319    -0.72200
O1057       O  0.39913510  0.34849133  0.79056511    -0.72200
O1058       O  0.44459754  0.32280728  0.78013458    -0.72400
V1059       V  0.40793421  0.30923832  0.78958710     1.35200
V1060       V  0.42147400  0.33503266  0.78533320     1.35200
C1061       C  0.44575607  0.30509161  0.78159205     0.77100
C1062       C  0.38398976  0.33969027  0.79365335     0.77100
C1063       C  0.40617105  0.32059476  0.75272842     0.77000
C1064       C  0.42249107  0.32353703  0.82239993     0.77000
O1065       O  0.23377153  0.44500162  0.78803920    -0.72200
O1066       O  0.22047187  0.40096948  0.81632828    -0.72400
O1067       O  0.20299330  0.43293130  0.80612971    -0.72200
O1068       O  0.25140540  0.41258796  0.79778805    -0.72200
O1069       O  0.26185550  0.42644364  0.82299849    -0.72200
O1070       O  0.21250982  0.44579038  0.83223321    -0.72200
O1071       O  0.23139746  0.41437061  0.84158905    -0.72200
O1072       O  0.24311094  0.45842485  0.81390522    -0.72400
V1073       V  0.22741388  0.42314543  0.80253668     1.35200
V1074       V  0.23706243  0.43603777  0.82714720     1.35200
C1075       C  0.24012797  0.45949306  0.79637998     0.77100
C1076       C  0.22383798  0.40022221  0.83387879     0.77100
C1077       C  0.19932397  0.44254536  0.82063651     0.77000
C1078       C  0.26480343  0.41559760  0.80909434     0.77000
O1079       O  0.22832693  0.25168075  0.93843434    -0.72200
O1080       O  0.20047726  0.23730511  0.89491560    -0.72400
O1081       O  0.21698687  0.26919596  0.90679539    -0.72200
O1082       O  0.21209611  0.21980310  0.92626760    -0.72200
O1083       O  0.18644162  0.22779636  0.94094005    -0.72200
O1084       O  0.19040047  0.27724356  0.91969338    -0.72200
O1085       O  0.17445267  0.24458970  0.90931485    -0.72200
O1086       O  0.20231962  0.26057889  0.95192004    -0.72400
V1087       V  0.21396995  0.24468762  0.91689192     1.35200
V1088       V  0.18893875  0.25244506  0.93026390     1.35200
C1089       C  0.21999599  0.25847842  0.95268901     0.77100
C1090       C  0.18265357  0.23832560  0.89480438     0.77100
C1091       C  0.20438487  0.28150700  0.90939932     0.77000
C1092       C  0.19842586  0.21521214  0.93671755     0.77000
O1093       O  0.27897455  0.25280149  0.09058968    -0.72200
O1094       O  0.30721915  0.23776423  0.13368770    -0.72400
O1095       O  0.28950901  0.26932543  0.12317342    -0.72200
O1096       O  0.29642395  0.22112308  0.10156471    -0.72200
O1097       O  0.32220788  0.23056153  0.08800333    -0.72200
O1098       O  0.31519047  0.27935403  0.10985829    -0.72200
O1099       O  0.33283516  0.24737489  0.11989305    -0.72200
O1100       O  0.30475888  0.26258264  0.07728272    -0.72400
V1101       V  0.29350408  0.24548914  0.11194759     1.35200
V1102       V  0.31820982  0.25484215  0.09897307     1.35200
C1103       C  0.28717934  0.25995284  0.07641338     0.77100
C1104       C  0.32493256  0.23991181  0.13398445     0.77100
C1105       C  0.30131180  0.28242678  0.12071802     0.77000
C1106       C  0.31064149  0.21738900  0.09152529     0.77000
O1107       O  0.27279347  0.44798723  0.24006256    -0.72200
O1108       O  0.28336303  0.40260504  0.21309337    -0.72400
O1109       O  0.30349484  0.43251727  0.22434326    -0.72200
O1110       O  0.25281568  0.41758161  0.22906060    -0.72200
O1111       O  0.24601796  0.43064690  0.20219975    -0.72200
O1112       O  0.29690491  0.44775495  0.19859324    -0.72200
O1113       O  0.27784037  0.41725117  0.18676918    -0.72200
O1114       O  0.26513098  0.46155640  0.21370620    -0.72400
V1115       V  0.27794407  0.42550224  0.22615948     1.35200
V1116       V  0.27155988  0.43907703  0.20084381     1.35200
C1117       C  0.26739160  0.46263242  0.23134014     0.77100
C1118       C  0.28252347  0.40228891  0.19524296     0.77100
C1119       C  0.30895032  0.44257443  0.21072217     0.77000
C1120       C  0.24099247  0.42066968  0.21615186     0.77000
O1121       O  0.23230304  0.10280015  0.29023870    -0.72200
O1122       O  0.21716206  0.14527738  0.31942918    -0.72400
O1123       O  0.24892768  0.13478855  0.30208323    -0.72200
O1124       O  0.20046687  0.11357923  0.30735669    -0.72200
O1125       O  0.20881383  0.10041769  0.33373529    -0.72200
O1126       O  0.25859499  0.11960500  0.32685080    -0.72200
O1127       O  0.22737535  0.13134027  0.34471420    -0.72200
O1128       O  0.23986617  0.08806883  0.31601482    -0.72400
V1129       V  0.22492472  0.12381576  0.30526030     1.35200
V1130       V  0.23356008  0.11008835  0.32981080     1.35200
C1131       C  0.23801517  0.08791727  0.29828947     0.77100
C1132       C  0.21984543  0.14556450  0.33708498     0.77100
C1133       C  0.26199470  0.13109957  0.31357309     0.77000
C1134       C  0.19617733  0.10378977  0.32159219     0.77000
O1135       O  0.43030392  0.24480248  0.28298760    -0.72200
O1136       O  0.38430513  0.21942153  0.29395533    -0.72400
O1137       O  0.41514971  0.22852544  0.31350188    -0.72200
O1138       O  0.39906922  0.23584252  0.26340149    -0.72200
O1139       O  0.41032755  0.20844705  0.25556471    -0.72200
O1140       O  0.42959819  0.20276229  0.30528037    -0.72200
O1141       O  0.39778064  0.19263852  0.28764049    -0.72200
O1142       O  0.44242832  0.21834495  0.27343303    -0.72400
V1143       V  0.40749097  0.23166555  0.28825722     1.35200
V1144       V  0.41980492  0.20606480  0.28056786     1.35200
C1145       C  0.44431453  0.23580084  0.27653270     0.77100
C1146       C  0.38337269  0.20160606  0.29309408     0.77100
C1147       C  0.42519577  0.21453400  0.31794484     0.77000
C1148       C  0.40116348  0.22311663  0.25113131     0.77000
O1149       O  0.07825002  0.30316986  0.24910325    -0.72200
O1150       O  0.12078496  0.33144367  0.23293342    -0.72400
O1151       O  0.11080991  0.31412417  0.26497261    -0.72200
O1152       O  0.08851394  0.32023889  0.21708151    -0.72200
O1153       O  0.07614277  0.34683761  0.22591096    -0.72200
O1154       O  0.09636093  0.33910877  0.27521923    -0.72200
O1155       O  0.10777179  0.35699892  0.24371496    -0.72200
O1156       O  0.06425034  0.32923778  0.25713774    -0.72400
V1157       V  0.09932051  0.31773678  0.24125770     1.35200
V1158       V  0.08637605  0.34253786  0.25040467     1.35200
C1159       C  0.06369149  0.31155032  0.25510163     0.77100
C1160       C  0.12147929  0.34909493  0.23554148     0.77100
C1161       C  0.10753604  0.32548439  0.27828227     0.77000
C1162       C  0.07890452  0.33468840  0.21310324     0.77000
O1163       O  0.22807238  0.29435917  0.44144416    -0.72200
O1164       O  0.19995930  0.30680337  0.39738713    -0.72400
O1165       O  0.21158317  0.32551077  0.42786219    -0.72200
O1166       O  0.21664249  0.27574257  0.41035066    -0.72200
O1167       O  0.19014117  0.26797156  0.42360116    -0.72200
O1168       O  0.18636035  0.31787453  0.44352217    -0.72200
O1169       O  0.17403834  0.30034762  0.41237095    -0.72200
O1170       O  0.20219332  0.28555125  0.45523865    -0.72400
V1171       V  0.21359883  0.30040664  0.41961471     1.35200
V1172       V  0.18870402  0.29302117  0.43346336     1.35200
C1173       C  0.21980757  0.28803257  0.45597988     0.77100
C1174       C  0.18212906  0.30588048  0.39748502     0.77100
C1175       C  0.19807755  0.33032761  0.43835918     0.77000
C1176       C  0.20391191  0.26363062  0.41306171     0.77000
O1177       O  0.73322284  0.28950127  0.08431788    -0.72200
O1178       O  0.70389064  0.30130974  0.12777536    -0.72400
O1179       O  0.72251687  0.27083974  0.11555301    -0.72200
O1180       O  0.71491986  0.32003620  0.09671261    -0.72200
O1181       O  0.69011281  0.31060869  0.08145441    -0.72200
O1182       O  0.69653097  0.26149516  0.10233080    -0.72200
O1183       O  0.67854938  0.29293274  0.11281093    -0.72200
O1184       O  0.70803098  0.27906303  0.07044323    -0.72400
V1185       V  0.71815123  0.29522613  0.10579988     1.35200
V1186       V  0.69383054  0.28616791  0.09197652     1.35200
C1187       C  0.72553468  0.28237069  0.06987576     0.77100
C1188       C  0.68615811  0.29915018  0.12765360     0.77100
C1189       C  0.71056359  0.25795889  0.11277230     0.77000
C1190       C  0.70132489  0.32377855  0.08587725     0.77000
O1191       O  0.58655841  0.28916132  0.28223026    -0.72200
O1192       O  0.63223306  0.31655911  0.28997254    -0.72400
O1193       O  0.60317606  0.30622262  0.31168345    -0.72200
O1194       O  0.61624689  0.29919312  0.26059893    -0.72200
O1195       O  0.60367354  0.32615374  0.25331565    -0.72200
O1196       O  0.58701585  0.33118727  0.30431467    -0.72200
O1197       O  0.61703474  0.34262324  0.28463264    -0.72200
O1198       O  0.57306441  0.31506484  0.27301729    -0.72400
V1199       V  0.60922270  0.30322824  0.28594124     1.35200
V1200       V  0.59541916  0.32823210  0.27891693     1.35200
C1201       C  0.57197269  0.29758885  0.27624711     0.77100
C1202       C  0.63218763  0.33441364  0.28901037     0.77100
C1203       C  0.59299353  0.31987721  0.31680772     0.77000
C1204       C  0.61315746  0.31180411  0.24841263     0.77000
O1205       O  0.73841102  0.09568616  0.23534919    -0.72200
O1206       O  0.72643858  0.14013165  0.20739776    -0.72400
O1207       O  0.70763349  0.10952888  0.21885920    -0.72200
O1208       O  0.75734375  0.12671356  0.22430373    -0.72200
O1209       O  0.76572829  0.11190002  0.19883223    -0.72200
O1210       O  0.71487921  0.09591547  0.19238664    -0.72200
O1211       O  0.73535263  0.12590928  0.18175388    -0.72200
O1212       O  0.74541907  0.08142598  0.20916543    -0.72400
V1213       V  0.73266407  0.11771260  0.22100153     1.35200
V1214       V  0.74021332  0.10401703  0.19605705     1.35200
C1215       C  0.74337788  0.08076748  0.22683327     0.77100
C1216       C  0.72915864  0.14055659  0.18973863     0.77100
C1217       C  0.70260682  0.10010662  0.20467745     0.77000
C1218       C  0.76993078  0.12272452  0.21239419     0.77000
O1219       O  0.92970707  0.24484979  0.24057077    -0.72200
O1220       O  0.88782970  0.21539322  0.22484436    -0.72400
O1221       O  0.89799948  0.23223349  0.25691698    -0.72200
O1222       O  0.91918385  0.22817896  0.20829589    -0.72200
O1223       O  0.93312807  0.20207374  0.21618277    -0.72200
O1224       O  0.91319690  0.20725914  0.26602298    -0.72200
O1225       O  0.90229566  0.19002879  0.23413723    -0.72200
O1226       O  0.94465719  0.21912862  0.24796401    -0.72400
V1227       V  0.90900990  0.22968233  0.23284429     1.35200
V1228       V  0.92309141  0.20514489  0.24098141     1.35200
C1229       C  0.94450369  0.23688173  0.24652932     0.77100
C1230       C  0.88794131  0.19765949  0.22692871     0.77100
C1231       C  0.90163354  0.22040608  0.26971283     0.77000
C1232       C  0.92922433  0.21422365  0.20366677     0.77000
O1233       O  0.78244319  0.25124393  0.43386087    -0.72200
O1234       O  0.80933617  0.23531929  0.39003557    -0.72400
O1235       O  0.79771900  0.21886550  0.42218033    -0.72200
O1236       O  0.79370355  0.26754837  0.40138837    -0.72200
O1237       O  0.82044128  0.27556431  0.41394033    -0.72200
O1238       O  0.82381299  0.22669713  0.43613063    -0.72200
O1239       O  0.83567582  0.24246948  0.40387897    -0.72200
O1240       O  0.80887571  0.25982114  0.44665610    -0.72400
V1241       V  0.79629736  0.24342856  0.41215454     1.35200
V1242       V  0.82166871  0.25102607  0.42493430     1.35200
C1243       C  0.79121238  0.25796296  0.44789913     0.77100
C1244       C  0.82717147  0.23624760  0.38953635     0.77100
C1245       C  0.81134057  0.21439310  0.43267546     0.77000
C1246       C  0.80660758  0.27961073  0.40340846     0.77000
O1247       O  0.78095132  0.44056384  0.27944544    -0.72200
O1248       O  0.79443481  0.39691458  0.30771000    -0.72400
O1249       O  0.76341389  0.40851652  0.28973967    -0.72200
O1250       O  0.81211385  0.42867243  0.29731520    -0.72200
O1251       O  0.80285523  0.44150065  0.32355837    -0.72200
O1252       O  0.75340334  0.42273919  0.31495601    -0.72200
O1253       O  0.78408606  0.41043888  0.33319044    -0.72200
O1254       O  0.77240191  0.45435939  0.30545698    -0.72400
V1255       V  0.78751649  0.41895834  0.29401596     1.35200
V1256       V  0.77829703  0.43203441  0.31873804     1.35200
C1257       C  0.77490881  0.45510894  0.28784467     0.77100
C1258       C  0.79155457  0.39632611  0.32532693     0.77100
C1259       C  0.75018727  0.41182317  0.30119490     0.77000
C1260       C  0.81595707  0.43806989  0.31194646     0.77000
O1261       O  0.77482488  0.79626012  0.09201822    -0.72200
O1262       O  0.80365380  0.80729493  0.13597908    -0.72400
O1263       O  0.79275296  0.82674706  0.10555901    -0.72200
O1264       O  0.78559552  0.77696580  0.12290000    -0.72200
O1265       O  0.81212998  0.76855143  0.11012491    -0.72200
O1266       O  0.81699150  0.81767332  0.08912734    -0.72200
O1267       O  0.82924287  0.80058102  0.12053782    -0.72200
O1268       O  0.80011870  0.78559472  0.07844631    -0.72400
V1269       V  0.78964843  0.80163275  0.11379199     1.35200
V1270       V  0.81412180  0.79323887  0.09980208     1.35200
C1271       C  0.78263708  0.78888620  0.07773191     0.77100
C1272       C  0.82145961  0.80606575  0.13560023     0.77100
C1273       C  0.80599276  0.83071814  0.09435918     0.77000
C1274       C  0.79800627  0.76448439  0.12025968     0.77000
O1275       O  0.73054947  0.94236459  0.28835124    -0.72200
O1276       O  0.71634885  0.90120725  0.32014816    -0.72400
O1277       O  0.69910185  0.93160522  0.30605520    -0.72200
O1278       O  0.74791458  0.91146336  0.30199167    -0.72200
O1279       O  0.75704285  0.92731341  0.32653406    -0.72200
O1280       O  0.70730741  0.94760994  0.33083192    -0.72200
O1281       O  0.72536280  0.91736379  0.34454833    -0.72200
O1282       O  0.73919667  0.95803872  0.31318962    -0.72400
V1283       V  0.72370557  0.92197605  0.30460259     1.35200
V1284       V  0.73207560  0.93731418  0.32827563     1.35200
C1285       C  0.73705251  0.95738259  0.29554027     0.77100
C1286       C  0.71845204  0.90240170  0.33786398     0.77100
C1287       C  0.69468445  0.94278115  0.31913711     0.77000
C1288       C  0.76075033  0.91555551  0.31358386     0.77000
O1289       O  0.92576371  0.79707752  0.28551971    -0.72200
O1290       O  0.88074749  0.82424624  0.29715692    -0.72400
O1291       O  0.89466880  0.80760470  0.26628586    -0.72200
O1292       O  0.91127599  0.81333872  0.31629789    -0.72200
O1293       O  0.92503428  0.83975182  0.30911409    -0.72200
O1294       O  0.90832528  0.83380813  0.25824010    -0.72200
O1295       O  0.89475737  0.85037210  0.28943633    -0.72200
O1296       O  0.93940298  0.82351819  0.27819343    -0.72400
V1297       V  0.90341377  0.81105814  0.29109324     1.35200
V1298       V  0.91666381  0.83631221  0.28378999     1.35200
C1299       C  0.94051047  0.80589393  0.28059236     0.77100
C1300       C  0.88025530  0.84205233  0.29552269     0.77100
C1301       C  0.89796695  0.81989831  0.25385527     0.77000
C1302       C  0.92066607  0.82753081  0.32141331     0.77000
O1303       O  0.77310680  0.59453070  0.23223518    -0.72200
O1304       O  0.78412531  0.64133533  0.20836581    -0.72400
O1305       O  0.75320116  0.62522708  0.22280933    -0.72200
O1306       O  0.80419505  0.61079542  0.21820718    -0.72200
O1307       O  0.79823704  0.59716774  0.19144347    -0.72200
O1308       O  0.74727125  0.61426608  0.19481512    -0.72200
O1309       O  0.77950015  0.62816993  0.18109307    -0.72200
O1310       O  0.76611554  0.58246830  0.20494868    -0.72400
V1311       V  0.77852720  0.61770718  0.21988253     1.35200
V1312       V  0.77282472  0.60570205  0.19362619     1.35200
C1313       C  0.76793247  0.58046191  0.22254738     0.77100
C1314       C  0.78387608  0.64257916  0.19055077     0.77100
C1315       C  0.74171482  0.62291818  0.20944552     0.77000
C1316       C  0.81000426  0.60152977  0.20415553     0.77000
O1317       O  0.72364579  0.75396720  0.43927726    -0.72200
O1318       O  0.69692555  0.74327549  0.39398944    -0.72400
O1319       O  0.71199028  0.77419774  0.40964460    -0.72200
O1320       O  0.70888295  0.72290168  0.42343260    -0.72200
O1321       O  0.68244496  0.72813445  0.43797688    -0.72200
O1322       O  0.68521822  0.77988546  0.42342629    -0.72200
O1323       O  0.67049327  0.74841060  0.40858813    -0.72200
O1324       O  0.69705347  0.75942165  0.45350116    -0.72400
V1325       V  0.70984562  0.74870718  0.41688871     1.35200
V1326       V  0.68434711  0.75392277  0.43065129     1.35200
C1327       C  0.71481186  0.75829200  0.45417505     0.77100
C1328       C  0.67908526  0.74385643  0.39367642     0.77100
C1329       C  0.69907424  0.78571483  0.41376075     0.77000
C1330       C  0.69509239  0.71663715  0.43278563     0.77000
O1331       O  0.58000648  0.74527876  0.24095091    -0.72200
O1332       O  0.62451015  0.71704567  0.22950778    -0.72400
O1333       O  0.59359364  0.72772058  0.21067150    -0.72200
O1334       O  0.61133065  0.73521890  0.25999500    -0.72200
O1335       O  0.59735487  0.70965488  0.26944847    -0.72200
O1336       O  0.57969403  0.70178188  0.21921027    -0.72200
O1337       O  0.61028531  0.69159750  0.23889515    -0.72200
O1338       O  0.56627095  0.71937078  0.24979773    -0.72400
V1339       V  0.60209356  0.73083286  0.23552770     1.35200
V1340       V  0.58865608  0.70611871  0.24420605     1.35200
C1341       C  0.56532581  0.73688642  0.24677679     0.77100
C1342       C  0.62482586  0.69935088  0.23218642     0.77100
C1343       C  0.58369152  0.71361327  0.20640780     0.77000
C1344       C  0.60779508  0.72369960  0.27308279     0.77000
C1345       C  0.63838321  0.73321934  0.36096656    -0.11200
C1346       C  0.64743334  0.73265092  0.34339894     0.05900
C1347       C  0.66708404  0.73500517  0.34250474    -0.10000
C1348       C  0.67749009  0.73824501  0.35889239    -0.11600
C1349       C  0.66837178  0.73942451  0.37641992    -0.01400
C1350       C  0.64874749  0.73670285  0.37733093    -0.10500
C1351       C  0.63637452  0.73062703  0.32589321     0.05900
H1352       H  0.67435775  0.73446429  0.32907415     0.07900
H1353       H  0.69258751  0.74022825  0.35779621     0.11300
H1354       H  0.64136514  0.73742480  0.39069003     0.11600
H1355       H  0.62323730  0.73155169  0.36195156     0.07900
C1356       C  0.62284557  0.71627696  0.32388086    -0.11200
C1357       C  0.61307727  0.71413996  0.30684773    -0.10500
C1358       C  0.61655456  0.72650726  0.29174900    -0.01400
C1359       C  0.62961512  0.74123661  0.29413652    -0.11600
C1360       C  0.63946989  0.74320422  0.31097058    -0.10000
H1361       H  0.62023239  0.70644504  0.33528548     0.07900
H1362       H  0.60310064  0.70267179  0.30537971     0.11600
H1363       H  0.63259520  0.75105359  0.28280927     0.11300
H1364       H  0.64958952  0.75457030  0.31233313     0.07900
C1365       C  0.69769784  0.64289992  0.23127420    -0.11200
C1366       C  0.68951637  0.65243427  0.21598168     0.05900
C1367       C  0.69772197  0.65071601  0.19800655    -0.10000
C1368       C  0.71410942  0.63993021  0.19549626    -0.11600
C1369       C  0.72269703  0.63111983  0.21101783    -0.01400
C1370       C  0.71421671  0.63251848  0.22885299    -0.10500
C1371       C  0.67270248  0.66439994  0.21914214     0.05900
H1372       H  0.69156194  0.65786772  0.18599991     0.07900
H1373       H  0.72058664  0.63927494  0.18167013     0.11300
H1374       H  0.72066907  0.62595580  0.24104747     0.11600
H1375       H  0.69168601  0.64407764  0.24527750     0.07900
C1376       C  0.65738067  0.65723020  0.22937294    -0.11200
C1377       C  0.64193011  0.66866065  0.23349048    -0.10500
C1378       C  0.64149492  0.68762760  0.22765345    -0.01400
C1379       C  0.65680406  0.69484527  0.21732930    -0.11600
C1380       C  0.67224888  0.68326373  0.21299475    -0.10000
H1381       H  0.65738627  0.64272931  0.23421131     0.07900
H1382       H  0.63035199  0.66262936  0.24142829     0.11600
H1383       H  0.65681448  0.70937178  0.21259133     0.11300
H1384       H  0.68403271  0.68913997  0.20524571     0.07900
C1385       C  0.79831560  0.88166546  0.29733582    -0.11200
C1386       C  0.81320694  0.88562915  0.30964645     0.05900
C1387       C  0.81122697  0.90022151  0.32293177    -0.10000
C1388       C  0.79424977  0.91029584  0.32422355    -0.11600
C1389       C  0.77923011  0.90607130  0.31201106    -0.01400
C1390       C  0.78158276  0.89181646  0.29842267    -0.10500
C1391       C  0.83072449  0.87450003  0.30814535     0.05900
H1392       H  0.82264520  0.90352743  0.33250614     0.07900
H1393       H  0.79281191  0.92120369  0.33482050     0.11300
H1394       H  0.77033695  0.88822406  0.28874896     0.11600
H1395       H  0.79967454  0.87069904  0.28677620     0.07900
C1396       C  0.82990092  0.85469167  0.30782033    -0.11200
C1397       C  0.84608087  0.84405672  0.30418306    -0.10500
C1398       C  0.86330790  0.85308058  0.30055071    -0.01400
C1399       C  0.86420268  0.87291118  0.30142893    -0.11600
C1400       C  0.84806381  0.88352496  0.30531634    -0.10000
H1401       H  0.81662227  0.84747604  0.31004737     0.07900
H1402       H  0.84500146  0.82882249  0.30371558     0.11600
H1403       H  0.87733864  0.88025855  0.29884017     0.11300
H1404       H  0.84895881  0.89878385  0.30536524     0.07900
C1405       C  0.68535710  0.83229467  0.39170926    -0.11200
C1406       C  0.70316170  0.83964476  0.38709003     0.05900
C1407       C  0.71941805  0.83004984  0.39293475    -0.10000
C1408       C  0.71796324  0.81290198  0.40241953    -0.11600
C1409       C  0.70021591  0.80517652  0.40656621    -0.01400
C1410       C  0.68388915  0.81523975  0.40162266    -0.10500
C1411       C  0.70515307  0.85663927  0.37523334     0.05900
H1412       H  0.73327754  0.83542925  0.38940976     0.07900
H1413       H  0.73075432  0.80538829  0.40605450     0.11300
H1414       H  0.67006030  0.80944391  0.40452129     0.11600
H1415       H  0.67266261  0.83956426  0.38733595     0.07900
C1416       C  0.69712051  0.85726893  0.35714137    -0.11200
C1417       C  0.70131196  0.87218878  0.34487632    -0.10500
C1418       C  0.71332186  0.88681843  0.35069976    -0.01400
C1419       C  0.72070658  0.88648025  0.36909569    -0.11600
C1420       C  0.71680174  0.87145173  0.38117146    -0.10000
H1421       H  0.68824992  0.84583686  0.35225135     0.07900
H1422       H  0.69532799  0.87220489  0.33083009     0.11600
H1423       H  0.72997756  0.89758483  0.37399513     0.11300
H1424       H  0.72316768  0.87118189  0.39505383     0.07900
C1425       C  0.79493616  0.67692365  0.15152299    -0.11200
C1426       C  0.79321310  0.69427916  0.16083786     0.05900
C1427       C  0.78953639  0.69453746  0.18032603    -0.10000
C1428       C  0.78714914  0.67767728  0.19024560    -0.11600
C1429       C  0.78817964  0.66035214  0.18075082    -0.01400
C1430       C  0.79234570  0.66011192  0.16137180    -0.10500
C1431       C  0.79438029  0.71204892  0.15006025     0.05900
H1432       H  0.78834031  0.70779577  0.18782743     0.07900
H1433       H  0.78392925  0.67820836  0.20517188     0.11300
H1434       H  0.79330272  0.64690800  0.15373870     0.11600
H1435       H  0.79763612  0.67637663  0.13649348     0.07900
C1436       C  0.80867119  0.71484309  0.13661411    -0.11200
C1437       C  0.80967749  0.73174769  0.12652125    -0.10500
C1438       C  0.79629567  0.74601253  0.12961683    -0.01400
C1439       C  0.78178013  0.74299036  0.14277439    -0.11600
C1440       C  0.78087519  0.72620301  0.15293772    -0.10000
H1441       H  0.81925695  0.70409925  0.13419172     0.07900
H1442       H  0.82104659  0.73375243  0.11651511     0.11600
H1443       H  0.77127603  0.75374519  0.14549005     0.11300
H1444       H  0.76953226  0.72422579  0.16298506     0.07900
C1445       C  0.88062081  0.83102675  0.20439652    -0.11200
C1446       C  0.86736638  0.81652945  0.20175012     0.05900
C1447       C  0.86533389  0.80261063  0.21562448    -0.10000
C1448       C  0.87598409  0.80336521  0.23208907    -0.11600
C1449       C  0.88876506  0.81822121  0.23520894    -0.01400
C1450       C  0.89115329  0.83196573  0.22110700    -0.10500
C1451       C  0.85548348  0.81570594  0.18467513     0.05900
H1452       H  0.85539998  0.79115500  0.21373768     0.07900
H1453       H  0.87377232  0.79252775  0.24263537     0.11300
H1454       H  0.90081113  0.84361284  0.22316494     0.11600
H1455       H  0.88240299  0.84188409  0.19378956     0.07900
C1456       C  0.83584943  0.81371276  0.18635708    -0.11200
C1457       C  0.82466489  0.81126519  0.17033495    -0.10500
C1458       C  0.83297608  0.81043863  0.15237855    -0.01400
C1459       C  0.85258601  0.81287915  0.15068793    -0.11600
C1460       C  0.86372831  0.81565332  0.16670188    -0.10000
H1461       H  0.82921501  0.81379376  0.20012636     0.07900
H1462       H  0.80960781  0.80940552  0.17205147     0.11600
H1463       H  0.85935326  0.81236451  0.13699790     0.11300
H1464       H  0.87885206  0.81705206  0.16512460     0.07900
C1465       C  0.77255754  0.50713359  0.27784462    -0.11200
C1466       C  0.76634302  0.50770520  0.25900540     0.05900
C1467       C  0.76282103  0.49047354  0.24967474    -0.10000
C1468       C  0.76572193  0.47323168  0.25889351    -0.11600
C1469       C  0.77161407  0.47292993  0.27775487    -0.01400
C1470       C  0.77485789  0.49000041  0.28715703    -0.10500
C1471       C  0.76441416  0.52620264  0.24912528     0.05900
H1472       H  0.75774729  0.49022718  0.23529507     0.07900
H1473       H  0.76309404  0.46017340  0.25140807     0.11300
H1474       H  0.77974781  0.49009112  0.30163067     0.11600
H1475       H  0.77613587  0.51988987  0.28540598     0.07900
C1476       C  0.76026121  0.54276931  0.25933849    -0.11200
C1477       C  0.76093111  0.56042299  0.25062695    -0.10500
C1478       C  0.76507320  0.56187802  0.23137018    -0.01400
C1479       C  0.76794767  0.54537269  0.22081878    -0.11600
C1480       C  0.76786265  0.52774317  0.22962697    -0.10000
H1481       H  0.75680315  0.54222156  0.27419060     0.07900
H1482       H  0.75842154  0.57296196  0.25899636     0.11600
H1483       H  0.77127308  0.54615834  0.20592374     0.11300
H1484       H  0.77136182  0.51548906  0.22123410     0.07900
C1485       C  0.80146217  0.36513095  0.36730602    -0.11200
C1486       C  0.80335893  0.34741459  0.35873560     0.05900
C1487       C  0.80257100  0.34603750  0.33897360    -0.10000
C1488       C  0.79933301  0.36205679  0.32798038    -0.11600
C1489       C  0.79657865  0.37964114  0.33661842    -0.01400
C1490       C  0.79797153  0.38109880  0.35634362    -0.10500
C1491       C  0.80454117  0.33022233  0.37040839     0.05900
H1492       H  0.80413253  0.33248836  0.33207733     0.07900
H1493       H  0.79837078  0.36058727  0.31280730     0.11300
H1494       H  0.79605807  0.39455336  0.36333361     0.11600
H1495       H  0.80188933  0.36649160  0.38251634     0.07900
C1496       C  0.81706133  0.32899728  0.38572125    -0.11200
C1497       C  0.81775729  0.31260194  0.39673182    -0.10500
C1498       C  0.80566946  0.29743023  0.39275357    -0.01400
C1499       C  0.79298807  0.29888966  0.37761080    -0.11600
C1500       C  0.79250583  0.31505327  0.36651163    -0.10000
H1501       H  0.82645117  0.34059725  0.38896740     0.07900
H1502       H  0.82770006  0.31177550  0.40828256     0.11600
H1503       H  0.78358349  0.28737587  0.37410157     0.11300
H1504       H  0.78252871  0.31579866  0.35497657     0.07900
C1505       C  0.86712017  0.23632288  0.30706912    -0.11200
C1506       C  0.87080274  0.22380122  0.32193504     0.05900
C1507       C  0.88541716  0.21052329  0.31992074    -0.10000
C1508       C  0.89577017  0.20946970  0.30307650    -0.11600
C1509       C  0.89182565  0.22186283  0.28810826    -0.01400
C1510       C  0.87752553  0.23541674  0.29041782    -0.10500
C1511       C  0.85941356  0.22494499  0.33945692     0.05900
H1512       H  0.88854158  0.20071609  0.33121090     0.07900
H1513       H  0.90667979  0.19887290  0.30169215     0.11300
H1514       H  0.87411250  0.24521057  0.27919789     0.11600
H1515       H  0.85620021  0.24692904  0.30836492     0.07900
C1516       C  0.86818264  0.22506650  0.35719042    -0.11200
C1517       C  0.85757801  0.22815882  0.37354050    -0.10500
C1518       C  0.83796650  0.23092689  0.37249510    -0.01400
C1519       C  0.82908516  0.22993302  0.35484639    -0.11600
C1520       C  0.83972267  0.22708823  0.33847798    -0.10000
H1521       H  0.88332939  0.22354919  0.35833647     0.07900
H1522       H  0.86479388  0.22879397  0.38698173     0.11600
H1523       H  0.81401754  0.23205142  0.35361360     0.11300
H1524       H  0.83258976  0.22684971  0.32497899     0.07900
C1525       C  0.75360038  0.00627436  0.28259188    -0.11200
C1526       C  0.74599810  0.00857900  0.26448428     0.05900
C1527       C  0.73682768  0.99321310  0.25588425    -0.10000
C1528       C  0.73458726  0.97614710  0.26559474    -0.11600
C1529       C  0.74145398  0.97421337  0.28406139    -0.01400
C1530       C  0.75133912  0.98930515  0.29227123    -0.10500
C1531       C  0.74676602  0.02725786  0.25509084     0.05900
H1532       H  0.73070761  0.99464301  0.24196878     0.07900
H1533       H  0.72683756  0.96477735  0.25897217     0.11300
H1534       H  0.75695675  0.98817432  0.30642784     0.11600
H1535       H  0.76104105  0.01773460  0.28941126     0.07900
C1536       C  0.74299343  0.04381661  0.26537637    -0.11200
C1537       C  0.74252965  0.06135613  0.25636892    -0.10500
C1538       C  0.74587374  0.06267959  0.23690459    -0.01400
C1539       C  0.75023082  0.04618948  0.22674360    -0.11600
C1540       C  0.75061510  0.02866121  0.23573068    -0.10000
H1541       H  0.73976530  0.04313650  0.28029354     0.07900
H1542       H  0.73904410  0.07378722  0.26453806     0.11600
H1543       H  0.75289576  0.04674471  0.21170953     0.11300
H1544       H  0.75379186  0.01617797  0.22751459     0.07900
C1545       C  0.83819597  0.18350125  0.21508354    -0.11200
C1546       C  0.83957163  0.16374649  0.21536719     0.05900
C1547       C  0.85719448  0.15519698  0.21782515    -0.10000
C1548       C  0.87311195  0.16629843  0.22103372    -0.11600
C1549       C  0.87160822  0.18608097  0.22157800    -0.01400
C1550       C  0.85412513  0.19460333  0.21804119    -0.10500
C1551       C  0.82235197  0.15224435  0.21495084     0.05900
H1552       H  0.85846605  0.13996911  0.21816324     0.07900
H1553       H  0.88649294  0.15939332  0.22357623     0.11300
H1554       H  0.85261064  0.20980673  0.21831515     0.11600
H1555       H  0.82466809  0.19030871  0.21308275     0.07900
C1556       C  0.80787224  0.15628632  0.22774530    -0.11200
C1557       C  0.79121039  0.14602745  0.22734795    -0.10500
C1558       C  0.78858543  0.13164126  0.21397328    -0.01400
C1559       C  0.80328257  0.12722478  0.20143291    -0.11600
C1560       C  0.82018579  0.13738821  0.20204283    -0.10000
H1561       H  0.80944066  0.16749865  0.23801269     0.07900
H1562       H  0.78015219  0.14979359  0.23719639     0.11600
H1563       H  0.80157134  0.11622663  0.19097516     0.11300
H1564       H  0.83132526  0.13405391  0.19213193     0.07900
C1565       C  0.68333443  0.34878765  0.29302663    -0.11200
C1566       C  0.68170681  0.36830359  0.29630039     0.05900
C1567       C  0.66371964  0.37626896  0.29831577    -0.10000
C1568       C  0.64766198  0.36508253  0.29637537    -0.11600
C1569       C  0.64927423  0.34568036  0.29257349    -0.01400
C1570       C  0.66724566  0.33754294  0.29128105    -0.10500
C1571       C  0.69871104  0.38038359  0.29700695     0.05900
H1572       H  0.66205688  0.39125915  0.30077203     0.07900
H1573       H  0.63394370  0.37168948  0.29757612     0.11300
H1574       H  0.66885489  0.32262688  0.28837747     0.11600
H1575       H  0.69707212  0.34225174  0.29170173     0.07900
C1576       C  0.70062580  0.39449190  0.31081094    -0.11200
C1577       C  0.71710210  0.40528392  0.31182492    -0.10500
C1578       C  0.73186069  0.40222145  0.29896449    -0.01400
C1579       C  0.72958504  0.38861795  0.28472851    -0.11600
C1580       C  0.71321545  0.37779295  0.28379404    -0.10000
H1581       H  0.68963254  0.39677235  0.32117094     0.07900
H1582       H  0.71848473  0.41565470  0.32295147     0.11600
H1583       H  0.74068104  0.38595248  0.27456921     0.11300
H1584       H  0.71192785  0.36730637  0.27276147     0.07900
C1585       C  0.69905413  0.21232433  0.13789619    -0.11200
C1586       C  0.71696384  0.20681663  0.14426027     0.05900
C1587       C  0.73276317  0.21765088  0.13932995    -0.10000
C1588       C  0.73067569  0.23399826  0.12860673    -0.11600
C1589       C  0.71278281  0.23964150  0.12231925    -0.01400
C1590       C  0.69699725  0.22854444  0.12681189    -0.10500
C1591       C  0.71942840  0.18970325  0.15585475     0.05900
H1592       H  0.74669540  0.21366248  0.14414521     0.07900
H1593       H  0.74305200  0.24235974  0.12539768     0.11300
H1594       H  0.68303239  0.23275323  0.12230259     0.11600
H1595       H  0.68671994  0.20404913  0.14145923     0.07900
C1596       C  0.70907411  0.18706564  0.17256295    -0.11200
C1597       C  0.71233750  0.17120409  0.18391316    -0.10500
C1598       C  0.72567434  0.15762976  0.17841323    -0.01400
C1599       C  0.73575907  0.16021936  0.16155628    -0.11600
C1600       C  0.73279405  0.17617302  0.15048873    -0.10000
H1601       H  0.69877637  0.19745078  0.17698428     0.07900
H1602       H  0.70433353  0.16943033  0.19680724     0.11600
H1603       H  0.74616951  0.14998747  0.15703386     0.11300
H1604       H  0.74088993  0.17792775  0.13764321     0.07900
C1605       C  0.64378929  0.30512449  0.15974867    -0.11200
C1606       C  0.65247444  0.30774084  0.17730320     0.05900
C1607       C  0.67222315  0.30865455  0.17828641    -0.10000
C1608       C  0.68317284  0.30655064  0.16203620    -0.11600
C1609       C  0.67456988  0.30319897  0.14453164    -0.01400
C1610       C  0.65475111  0.30273081  0.14350406    -0.10500
C1611       C  0.64118923  0.30824223  0.19481532     0.05900
H1612       H  0.67917281  0.31073129  0.19172611     0.07900
H1613       H  0.69838050  0.30697623  0.16327670     0.11300
H1614       H  0.64771827  0.30018457  0.13019472     0.11600
H1615       H  0.62857964  0.30425616  0.15873186     0.07900
C1616       C  0.62679181  0.32160543  0.19746318    -0.11200
C1617       C  0.61718017  0.32262072  0.21474594    -0.10500
C1618       C  0.62159527  0.30999974  0.22940181    -0.01400
C1619       C  0.63547865  0.29617207  0.22630259    -0.11600
C1620       C  0.64525328  0.29541246  0.20927674    -0.10000
H1621       H  0.62344666  0.33160729  0.18640842     0.07900
H1622       H  0.60657499  0.33342740  0.21675690     0.11600
H1623       H  0.63927728  0.28626185  0.23729266     0.11300
H1624       H  0.65616444  0.28487117  0.20743189     0.07900
C1625       C  0.01202718  0.29978523  0.25515742    -0.11200
C1626       C  0.01215509  0.28037543  0.25939205     0.05900
C1627       C  0.02947707  0.27180308  0.26406820    -0.10000
C1628       C  0.04628972  0.28202740  0.26321442    -0.11600
C1629       C  0.04605325  0.30118579  0.25838650    -0.01400
C1630       C  0.02875867  0.31010916  0.25492790    -0.10500
C1631       C  0.99461249  0.26892849  0.25756702     0.05900
H1632       H  0.03018051  0.25708022  0.26803222     0.07900
H1633       H  0.05949633  0.27491625  0.26608858     0.11300
H1634       H  0.02827389  0.32486498  0.25095774     0.11600
H1635       H  0.99917855  0.30693047  0.25111694     0.07900
C1636       C  0.97667585  0.27706563  0.26033423    -0.11200
C1637       C  0.96029119  0.26668779  0.25681530    -0.10500
C1638       C  0.96150845  0.24781379  0.25106478    -0.01400
C1639       C  0.97927808  0.23943871  0.24895509    -0.11600
C1640       C  0.99562246  0.24991989  0.25189086    -0.10000
H1641       H  0.97520834  0.29148121  0.26512010     0.07900
H1642       H  0.94668228  0.27337091  0.25867385     0.11600
H1643       H  0.98055600  0.22493341  0.24430624     0.11300
H1644       H  0.00900545  0.24318553  0.24904110     0.07900
C1645       C  0.14051646  0.31622224  0.36563933    -0.11200
C1646       C  0.14920701  0.31714254  0.34786794     0.05900
C1647       C  0.16892122  0.31543175  0.34669427    -0.10000
C1648       C  0.17969198  0.31234779  0.36289010    -0.11600
C1649       C  0.17094559  0.31070854  0.38057543    -0.01400
C1650       C  0.15127536  0.31292042  0.38183388    -0.10500
C1651       C  0.13779542  0.31900894  0.33045628     0.05900
H1652       H  0.17599715  0.31633362  0.33318042     0.07900
H1653       H  0.19481162  0.31074667  0.36149512     0.11300
H1654       H  0.14416231  0.31182590  0.39531349     0.11600
H1655       H  0.12534989  0.31741872  0.36692493     0.07900
C1656       C  0.14175193  0.30745736  0.31488725    -0.11200
C1657       C  0.13154909  0.30934102  0.29820830    -0.10500
C1658       C  0.11720067  0.32293484  0.29660214    -0.01400
C1659       C  0.11292886  0.33428074  0.31228932    -0.11600
C1660       C  0.12307291  0.33224243  0.32913846    -0.10000
H1661       H  0.15277622  0.29690615  0.31562490     0.07900
H1662       H  0.13517648  0.30032374  0.28642010     0.11600
H1663       H  0.10192384  0.34483674  0.31146762     0.11300
H1664       H  0.11974435  0.34131475  0.34097008     0.07900
C1665       C  0.49640836  0.24270489  0.26729851    -0.11200
C1666       C  0.49881522  0.26191542  0.27150964     0.05900
C1667       C  0.48288224  0.27276107  0.27624117    -0.10000
C1668       C  0.46503515  0.26444543  0.27727354    -0.11600
C1669       C  0.46273838  0.24512078  0.27354657    -0.01400
C1670       C  0.47857154  0.23440877  0.26827495    -0.10500
C1671       C  0.51792243  0.27049431  0.27156626     0.05900
H1672       H  0.48429569  0.28756104  0.27976008     0.07900
H1673       H  0.45312418  0.27304513  0.28145058     0.11300
H1674       H  0.47727087  0.21947279  0.26532298     0.11600
H1675       H  0.50835304  0.23405089  0.26334395     0.07900
C1676       C  0.53340110  0.26068139  0.27918701    -0.11200
C1677       C  0.55117164  0.26920081  0.28020138    -0.10500
C1678       C  0.55379130  0.28771071  0.27365051    -0.01400
C1679       C  0.53842579  0.29732061  0.26560309    -0.11600
C1680       C  0.52071512  0.28881251  0.26456090    -0.10000
H1681       H  0.53164633  0.24662285  0.28491055     0.07900
H1682       H  0.56270861  0.26150694  0.28658824     0.11600
H1683       H  0.54000121  0.31158623  0.26034718     0.11300
H1684       H  0.50916308  0.29662058  0.25834199     0.07900
C1685       C  0.29954315  0.16446045  0.29585739    -0.11200
C1686       C  0.31451639  0.16095110  0.30826224     0.05900
C1687       C  0.31239452  0.14705148  0.32227263    -0.10000
C1688       C  0.29541118  0.13707260  0.32400140    -0.11600
C1689       C  0.28040735  0.14069956  0.31158263    -0.01400
C1690       C  0.28273911  0.15442596  0.29744707    -0.10500
C1691       C  0.33235177  0.17159175  0.30607535     0.05900
H1692       H  0.32376377  0.14412694  0.33203082     0.07900
H1693       H  0.29397723  0.12665488  0.33508558     0.11300
H1694       H  0.27146891  0.15759980  0.28765067     0.11600
H1695       H  0.30091725  0.17486567  0.28474586     0.07900
C1696       C  0.34969947  0.16208795  0.30566158    -0.11200
C1697       C  0.36631631  0.17190129  0.30162794    -0.10500
C1698       C  0.36591900  0.19144374  0.29821228    -0.01400
C1699       C  0.34865781  0.20106387  0.29934923    -0.11600
C1700       C  0.33201635  0.19120825  0.30312310    -0.10000
H1701       H  0.35031212  0.14696411  0.30777497     0.07900
H1702       H  0.37946276  0.16415604  0.30099192     0.11600
H1703       H  0.34794768  0.21612393  0.29684501     0.11300
H1704       H  0.31881602  0.19888100  0.30353573     0.07900
C1705       C  0.20558678  0.19509186  0.35086716    -0.11200
C1706       C  0.20748106  0.19443140  0.37057799     0.05900
C1707       C  0.21227917  0.17734604  0.37929189    -0.10000
C1708       C  0.21593319  0.16134476  0.36838822    -0.11600
C1709       C  0.21463920  0.16212553  0.34859854    -0.01400
C1710       C  0.20901867  0.17904262  0.33996916    -0.10500
C1711       C  0.20621638  0.21192715  0.38177820     0.05900
H1712       H  0.21397348  0.17659482  0.39445723     0.07900
H1713       H  0.22014397  0.14845980  0.37543846     0.11300
H1714       H  0.20782172  0.18003334  0.32477369     0.11600
H1715       H  0.20181637  0.20815952  0.34389299     0.07900
C1716       C  0.21697754  0.22758266  0.37636739    -0.11200
C1717       C  0.21645462  0.24410034  0.38692869    -0.10500
C1718       C  0.20492696  0.24545873  0.40300557    -0.01400
C1719       C  0.19404563  0.22982430  0.40845583    -0.11600
C1720       C  0.19487968  0.21304229  0.39801847    -0.10000
H1721       H  0.22599283  0.22694850  0.36403859     0.07900
H1722       H  0.22486446  0.25597555  0.38225699     0.11600
H1723       H  0.18499734  0.23057077  0.42074325     0.11300
H1724       H  0.18650249  0.20104758  0.40242280     0.07900
C1725       C  0.18981966  0.40789068  0.20699837    -0.11200
C1726       C  0.18794814  0.39192444  0.21861679     0.05900
C1727       C  0.20322762  0.38604463  0.22961193    -0.10000
C1728       C  0.22016589  0.39582865  0.22902411    -0.11600
C1729       C  0.22234325  0.41158406  0.21719596    -0.01400
C1730       C  0.20706204  0.41754783  0.20608794    -0.10500
C1731       C  0.17010790  0.38140980  0.22004828     0.05900
H1732       H  0.20197839  0.37392015  0.23884544     0.07900
H1733       H  0.23173017  0.39076822  0.23761628     0.11300
H1734       H  0.20844424  0.42961339  0.19681340     0.11600
H1735       H  0.17808087  0.41265226  0.19847779     0.07900
C1736       C  0.15359542  0.39058542  0.22583221    -0.11200
C1737       C  0.13760741  0.38007405  0.23052861    -0.10500
C1738       C  0.13787881  0.36025855  0.22931152    -0.01400
C1739       C  0.15412079  0.35121298  0.22252456    -0.11600
C1740       C  0.17013553  0.36170470  0.21803149    -0.10000
H1741       H  0.15338532  0.40576142  0.22763444     0.07900
H1742       H  0.12519630  0.38742661  0.23554968     0.11600
H1743       H  0.15467332  0.33599255  0.22128735     0.11300
H1744       H  0.18278883  0.35440210  0.21355295     0.07900
C1745       C  0.30832749  0.33293563  0.13737341    -0.11200
C1746       C  0.29506285  0.33410330  0.15209814     0.05900
C1747       C  0.28371146  0.31837579  0.15602696    -0.10000
C1748       C  0.28559000  0.30181886  0.14554896    -0.11600
C1749       C  0.29899949  0.30049127  0.13097821    -0.01400
C1750       C  0.31038201  0.31622069  0.12699197    -0.10500
C1751       C  0.29280493  0.35167008  0.16327171     0.05900
H1752       H  0.27321064  0.31895128  0.16711270     0.07900
H1753       H  0.27664607  0.28993686  0.14905258     0.11300
H1754       H  0.32087264  0.31558889  0.11590629     0.11600
H1755       H  0.31731594  0.34485148  0.13411392     0.07900
C1756       C  0.29101246  0.35089946  0.18302017    -0.11200
C1757       C  0.28806055  0.36737018  0.19349416    -0.10500
C1758       C  0.28662840  0.38491737  0.18440192    -0.01400
C1759       C  0.28861077  0.38569594  0.16467116    -0.11600
C1760       C  0.29177503  0.36926287  0.15423264    -0.10000
H1761       H  0.29190443  0.33752421  0.19036045     0.07900
H1762       H  0.28657009  0.36632732  0.20866246     0.11600
H1763       H  0.28758874  0.39902047  0.15725673     0.11300
H1764       H  0.29292852  0.37024569  0.13903032     0.07900
C1765       C  0.36706602  0.22861633  0.16436046    -0.11200
C1766       C  0.35881341  0.22780001  0.18228857     0.05900
C1767       C  0.33915800  0.22933855  0.18410171    -0.10000
C1768       C  0.32793697  0.23239324  0.16823481    -0.11600
C1769       C  0.33628972  0.23430537  0.15040377    -0.01400
C1770       C  0.35589410  0.23200263  0.14853252    -0.10500
C1771       C  0.37071964  0.22695275  0.19924133     0.05900
H1772       H  0.33257000  0.22861906  0.19787489     0.07900
H1773       H  0.31286604  0.23407715  0.17001861     0.11300
H1774       H  0.36263983  0.23325474  0.13487727     0.11600
H1775       H  0.38221019  0.22750528  0.16272791     0.07900
C1776       C  0.38407108  0.21254195  0.20167949    -0.11200
C1777       C  0.39456708  0.21151211  0.21835387    -0.10500
C1778       C  0.39203080  0.22509124  0.23257716    -0.01400
C1779       C  0.37926921  0.23996352  0.22961501    -0.11600
C1780       C  0.36863024  0.24079726  0.21317064    -0.10000
H1781       H  0.38592604  0.20181261  0.19096166     0.07900
H1782       H  0.40431621  0.19991401  0.22029248     0.11600
H1783       H  0.37701014  0.25065910  0.24028806     0.11300
H1784       H  0.35862367  0.25220668  0.21135873     0.07900
C1785       C  0.25894910  0.26121616  0.98906093    -0.11200
C1786       C  0.24912052  0.26783824  0.00498384     0.05900
C1787       C  0.23008394  0.27292033  0.00303672    -0.10000
C1788       C  0.22083587  0.27058062  0.98581287    -0.11600
C1789       C  0.23042473  0.26312210  0.97014080    -0.01400
C1790       C  0.24969533  0.25889172  0.97181052    -0.10500
C1791       C  0.25829880  0.26803143  0.02380313     0.05900
H1792       H  0.22222607  0.27835896  0.01495633     0.07900
H1793       H  0.20601218  0.27411619  0.98493334     0.11300
H1794       H  0.25746221  0.25312093  0.95998583     0.11600
H1795       H  0.27357885  0.25699965  0.99013703     0.07900
C1796       C  0.24847796  0.26155467  0.03979441    -0.11200
C1797       C  0.25762832  0.25970903  0.05714320    -0.10500
C1798       C  0.27679723  0.26428139  0.05886328    -0.01400
C1799       C  0.28639889  0.27157814  0.04310122    -0.11600
C1800       C  0.27725071  0.27341621  0.02575273    -0.10000
H1801       H  0.23392599  0.25708488  0.03871770     0.07900
H1802       H  0.24987141  0.25402432  0.06901855     0.11600
H1803       H  0.30116862  0.27532795  0.04400559     0.11300
H1804       H  0.28510653  0.27871958  0.01376733     0.07900
C1805       C  0.19187007  0.32755218  0.88496144    -0.11200
C1806       C  0.20973765  0.33376687  0.87904751     0.05900
C1807       C  0.22570350  0.32316627  0.88392821    -0.10000
C1808       C  0.22387959  0.30644531  0.89414660    -0.11600
C1809       C  0.20606695  0.30009248  0.90003858    -0.01400
C1810       C  0.19006404  0.31092309  0.89558492    -0.10500
C1811       C  0.21209035  0.35126950  0.86787324     0.05900
H1812       H  0.23961056  0.32765049  0.87946470     0.07900
H1813       H  0.23644948  0.29837871  0.89733301     0.11300
H1814       H  0.17615539  0.30623844  0.89980884     0.11600
H1815       H  0.17938170  0.33559391  0.88142343     0.07900
C1816       C  0.20260174  0.35384225  0.85065891    -0.11200
C1817       C  0.20640033  0.36969392  0.83938978    -0.10500
C1818       C  0.21945051  0.38335343  0.84539762    -0.01400
C1819       C  0.22848103  0.38092833  0.86287311    -0.11600
C1820       C  0.22496387  0.36500768  0.87388856    -0.10000
H1821       H  0.19270403  0.34332339  0.84570036     0.07900
H1822       H  0.19915424  0.37128524  0.82604686     0.11600
H1823       H  0.23860359  0.39119804  0.86790340     0.11300
H1824       H  0.23241538  0.36333041  0.88711464     0.07900
C1825       C  0.31392949  0.39658950  0.81809507    -0.11200
C1826       C  0.31613976  0.38390769  0.80299113     0.05900
C1827       C  0.30182188  0.38259949  0.78941413    -0.10000
C1828       C  0.28547514  0.39344190  0.79108979    -0.11600
C1829       C  0.28302195  0.40577964  0.80643998    -0.01400
C1830       C  0.29750526  0.40739349  0.81983109    -0.10500
C1831       C  0.33339251  0.37220128  0.80127472     0.05900
H1832       H  0.30329140  0.37320477  0.77745644     0.07900
H1833       H  0.27458516  0.39187701  0.78050984     0.11300
H1834       H  0.29596904  0.41667089  0.83186859     0.11600
H1835       H  0.32472198  0.39781322  0.82881730     0.07900
C1836       C  0.35117161  0.38026969  0.80438162    -0.11200
C1837       C  0.36750130  0.36953330  0.80215664    -0.10500
C1838       C  0.36644133  0.35041679  0.79697432    -0.01400
C1839       C  0.34866696  0.34216960  0.79423988    -0.11600
C1840       C  0.33227489  0.35301470  0.79624332    -0.10000
H1841       H  0.35247595  0.39503334  0.80809654     0.07900
H1842       H  0.38102301  0.37626481  0.80439045     0.11600
H1843       H  0.34746757  0.32749475  0.79015766     0.11300
H1844       H  0.31871377  0.34639863  0.79392624     0.07900
C1845       C  0.22946682  0.27791510  0.50748562    -0.11200
C1846       C  0.24884546  0.28167374  0.50883621     0.05900
C1847       C  0.25890718  0.28620504  0.49232270    -0.10000
C1848       C  0.24964205  0.28762089  0.47496716    -0.11600
C1849       C  0.23013878  0.28447280  0.47376109    -0.01400
C1850       C  0.22022841  0.27925303  0.49014536    -0.10500
C1851       C  0.25840022  0.28166027  0.52747481     0.05900
H1852       H  0.27383028  0.28934736  0.49292849     0.07900
H1853       H  0.25764960  0.29170210  0.46260924     0.11300
H1854       H  0.20518780  0.27668992  0.48968744     0.11600
H1855       H  0.22140074  0.27411260  0.51989327     0.07900
C1856       C  0.24967466  0.28979504  0.54336012    -0.11200
C1857       C  0.25926848  0.29106479  0.56056363    -0.10500
C1858       C  0.27777461  0.28424721  0.56218798    -0.01400
C1859       C  0.28622082  0.27553672  0.54648523    -0.11600
C1860       C  0.27664969  0.27425417  0.52934420    -0.10000
H1861       H  0.23568681  0.29581379  0.54230463     0.07900
H1862       H  0.25246082  0.29796980  0.57237055     0.11600
H1863       H  0.30044700  0.27005510  0.54730556     0.11300
H1864       H  0.28362249  0.26763659  0.51746927     0.07900
C1865       C  0.37368017  0.30439660  0.66681196    -0.11200
C1866       C  0.36757224  0.31530874  0.68211081     0.05900
C1867       C  0.34931107  0.32298815  0.68191272    -0.10000
C1868       C  0.33713857  0.31932161  0.66681672    -0.11600
C1869       C  0.34319244  0.30815025  0.65161241    -0.01400
C1870       C  0.36167212  0.30096475  0.65165998    -0.10500
C1871       C  0.37965277  0.31722282  0.69892527     0.05900
H1872       H  0.34427374  0.33126910  0.69372593     0.07900
H1873       H  0.32300460  0.32508788  0.66709366     0.11300
H1874       H  0.36676558  0.29232351  0.64013488     0.11600
H1875       H  0.38770315  0.29834113  0.66670972     0.07900
C1876       C  0.38694072  0.30095901  0.70751915    -0.11200
C1877       C  0.39658984  0.30224921  0.72456708    -0.10500
C1878       C  0.39942731  0.31985808  0.73315253    -0.01400
C1879       C  0.39316040  0.33627546  0.72401622    -0.11600
C1880       C  0.38311371  0.33494237  0.70708197    -0.10000
H1881       H  0.38435522  0.28714934  0.70150496     0.07900
H1882       H  0.40125095  0.28939795  0.73140843     0.11600
H1883       H  0.39502083  0.34997448  0.73052213     0.11300
H1884       H  0.37767250  0.34765067  0.70057318     0.07900
C1885       C  0.12447818  0.21228546  0.82516365    -0.11200
C1886       C  0.14023111  0.22411365  0.82727642     0.05900
C1887       C  0.14611583  0.23527253  0.81207380    -0.10000
C1888       C  0.13664804  0.23449839  0.79493263    -0.11600
C1889       C  0.12119384  0.22234299  0.79248965    -0.01400
C1890       C  0.11511509  0.21124738  0.80777489    -0.10500
C1891       C  0.15069503  0.22524052  0.84520108     0.05900
H1892       H  0.15806004  0.24469016  0.81350699     0.07900
H1893       H  0.14170954  0.24321793  0.78344670     0.11300
H1894       H  0.10323197  0.20178116  0.80626151     0.11600
H1895       H  0.11970205  0.20362411  0.83681469     0.07900
C1896       C  0.14141495  0.23013170  0.86195729    -0.11200
C1897       C  0.15180071  0.23393302  0.87826436    -0.10500
C1898       C  0.17160939  0.23273579  0.87807454    -0.01400
C1899       C  0.18075957  0.22692051  0.86150973    -0.11600
C1900       C  0.17039048  0.22329202  0.84519725    -0.10000
H1901       H  0.12624340  0.23184596  0.86218827     0.07900
H1902       H  0.14435264  0.23830128  0.89086910     0.11600
H1903       H  0.19596958  0.22573281  0.86098023     0.11300
H1904       H  0.17778006  0.21943058  0.83238772     0.07900
C1905       C  0.19502659  0.14318235  0.69614155    -0.11200
C1906       C  0.18805889  0.14665920  0.71435462     0.05900
C1907       C  0.19738554  0.13899795  0.72999114    -0.10000
C1908       C  0.21403948  0.12887023  0.72757129    -0.11600
C1909       C  0.22143782  0.12589468  0.70943953    -0.01400
C1910       C  0.21153053  0.13262008  0.69367350    -0.10500
C1911       C  0.17177814  0.15917658  0.71740627     0.05900
H1912       H  0.19223293  0.14160877  0.74414453     0.07900
H1913       H  0.22147744  0.12385130  0.73993366     0.11300
H1914       H  0.21711112  0.13065363  0.67958442     0.11600
H1915       H  0.18792300  0.14898179  0.68392923     0.07900
C1916       C  0.17250630  0.17810794  0.71162671    -0.11200
C1917       C  0.15790436  0.19051635  0.71633468    -0.10500
C1918       C  0.14225674  0.18404767  0.72662457    -0.01400
C1919       C  0.14141658  0.16495840  0.73198742    -0.11600
C1920       C  0.15613387  0.15268332  0.72757125    -0.10000
H1921       H  0.18463602  0.18338963  0.70397963     0.07900
H1922       H  0.15885750  0.20512867  0.71196526     0.11600
H1923       H  0.12952328  0.15956467  0.73991795     0.11300
H1924       H  0.15541897  0.13814014  0.73222962     0.07900
C1925       C  0.28882414  0.22552866  0.65660527    -0.11200
C1926       C  0.29767885  0.20922385  0.64972146     0.05900
C1927       C  0.30890187  0.21051940  0.63340093    -0.10000
C1928       C  0.31133804  0.22788001  0.62425131    -0.11600
C1929       C  0.30232204  0.24413900  0.63110312    -0.01400
C1930       C  0.29102899  0.24275277  0.64734994    -0.10500
C1931       C  0.29476887  0.19091840  0.65941717     0.05900
H1932       H  0.31594580  0.19814458  0.62786320     0.07900
H1933       H  0.32014604  0.22856540  0.61178613     0.11300
H1934       H  0.28398125  0.25505750  0.65304385     0.11600
H1935       H  0.27992166  0.22489136  0.66901000     0.07900
C1936       C  0.29565119  0.18974117  0.67919393    -0.11200
C1937       C  0.29187143  0.17271041  0.68841857    -0.10500
C1938       C  0.28699830  0.15655107  0.67804782    -0.01400
C1939       C  0.28637578  0.15768823  0.65824701    -0.11600
C1940       C  0.29028861  0.17467789  0.64902864    -0.10000
H1941       H  0.29924936  0.20203191  0.68752169     0.07900
H1942       H  0.29256503  0.17225242  0.70366970     0.11600
H1943       H  0.28269810  0.14547107  0.64984930     0.11300
H1944       H  0.28932745  0.17524865  0.63379375     0.07900
C1945       C  0.78465563  0.27151166  0.99738517    -0.11200
C1946       C  0.76540742  0.27588396  0.99904296     0.05900
C1947       C  0.75550860  0.28163007  0.98282944    -0.10000
C1948       C  0.76479637  0.28368721  0.96555509    -0.11600
C1949       C  0.78420140  0.28010687  0.96411729    -0.01400
C1950       C  0.79394948  0.27359925  0.98011689    -0.10500
C1951       C  0.75587059  0.27557558  0.01773359     0.05900
H1952       H  0.74073271  0.28535366  0.98364999     0.07900
H1953       H  0.75692957  0.28883908  0.95352113     0.11300
H1954       H  0.80892000  0.27068779  0.97945659     0.11600
H1955       H  0.79261654  0.26677131  0.00952215     0.07900
C1956       C  0.73703889  0.26965180  0.01932270    -0.11200
C1957       C  0.72743275  0.27122023  0.03645625    -0.10500
C1958       C  0.73643804  0.27871414  0.05243648    -0.01400
C1959       C  0.75551218  0.28387852  0.05110715    -0.11600
C1960       C  0.76512851  0.28233772  0.03393278    -0.10000
H1961       H  0.72960895  0.26406250  0.00721408     0.07900
H1962       H  0.71277497  0.26700320  0.03704356     0.11600
H1963       H  0.76283479  0.28971539  0.06316831     0.11300
H1964       H  0.77957331  0.28720285  0.03316635     0.07900
C1965       C  0.00036426  0.29992892  0.76060260    -0.11200
C1966       C  0.00203326  0.28092673  0.75531145     0.05900
C1967       C  0.98597077  0.27128523  0.74881494    -0.10000
C1968       C  0.96869186  0.28057094  0.74721732    -0.11600
C1969       C  0.96713030  0.29969882  0.75206013    -0.01400
C1970       C  0.98307168  0.30921993  0.75902098    -0.10500
C1971       C  0.02053870  0.27125402  0.75579196     0.05900
H1972       H  0.98690308  0.25669620  0.74437198     0.07900
H1973       H  0.95670351  0.27291727  0.74167148     0.11300
H1974       H  0.98228892  0.32398144  0.76288697     0.11600
H1975       H  0.01246281  0.30762864  0.76583550     0.07900
C1976       C  0.03688700  0.28022286  0.74898542    -0.11200
C1977       C  0.05383934  0.27022524  0.74739237    -0.10500
C1978       C  0.05468072  0.25113078  0.75261564    -0.01400
C1979       C  0.03857745  0.24254151  0.76037335    -0.11600
C1980       C  0.02171363  0.25248200  0.76193183    -0.10000
H1981       H  0.03635122  0.29468372  0.74407830     0.07900
H1982       H  0.06603515  0.27719992  0.74139848     0.11600
H1983       H  0.03881243  0.22789409  0.76472837     0.11300
H1984       H  0.00944521  0.24534274  0.76758043     0.07900
C1985       C  0.87277523  0.31327404  0.81115188    -0.11200
C1986       C  0.87680047  0.32616968  0.82553565     0.05900
C1987       C  0.89181101  0.33891794  0.82328592    -0.10000
C1988       C  0.90220411  0.33916060  0.80644386    -0.11600
C1989       C  0.89792886  0.32634194  0.79194282    -0.01400
C1990       C  0.88327954  0.31326231  0.79462166    -0.10500
C1991       C  0.86541828  0.32556947  0.84291387     0.05900
H1992       H  0.89519323  0.34887464  0.83436103     0.07900
H1993       H  0.91340850  0.34939224  0.80470102     0.11300
H1994       H  0.87956596  0.30323282  0.78371782     0.11600
H1995       H  0.86148683  0.30309655  0.81276069     0.07900
C1996       C  0.84565244  0.32556318  0.84174656    -0.11200
C1997       C  0.83472466  0.32149073  0.85761139    -0.10500
C1998       C  0.84342704  0.31713613  0.87483462    -0.01400
C1999       C  0.86318788  0.31822967  0.87621693    -0.11600
C2000       C  0.87410132  0.32250701  0.86037918    -0.10000
H2001       H  0.83871778  0.32798234  0.82835335     0.07900
H2002       H  0.81954013  0.32088009  0.85617264     0.11600
H2003       H  0.87026398  0.31510333  0.88938106     0.11300
H2004       H  0.88932728  0.32233183  0.86151760     0.07900
C2005       C  0.82314060  0.21539822  0.88601859    -0.11200
C2006       C  0.81172139  0.21422666  0.86985380     0.05900
C2007       C  0.80103125  0.22993598  0.86441604    -0.10000
C2008       C  0.80141873  0.24639635  0.87508204    -0.11600
C2009       C  0.81266062  0.24761474  0.89134045    -0.01400
C2010       C  0.82375832  0.23207694  0.89660286    -0.10500
C2011       C  0.80979543  0.19642154  0.85921025     0.05900
H2012       H  0.79192515  0.22930547  0.85217507     0.07900
H2013       H  0.79286303  0.25821893  0.87055643     0.11300
H2014       H  0.83261728  0.23272185  0.90901641     0.11600
H2015       H  0.83152487  0.20341800  0.89044084     0.07900
C2016       C  0.80986732  0.19653208  0.83938648    -0.11200
C2017       C  0.80552238  0.18017521  0.82930732    -0.10500
C2018       C  0.80090606  0.16347369  0.83890211    -0.01400
C2019       C  0.80153623  0.16321689  0.85872702    -0.11600
C2020       C  0.80600165  0.17953001  0.86878461    -0.10000
H2021       H  0.81288929  0.20940224  0.83171261     0.07900
H2022       H  0.80529279  0.18073793  0.81404453     0.11600
H2023       H  0.79814692  0.15050842  0.86651115     0.11300
H2024       H  0.80566449  0.17915243  0.88405463     0.07900
C2025       C  0.76646615  0.25841968  0.53632799    -0.11200
C2026       C  0.75608561  0.26550622  0.52095440     0.05900
C2027       C  0.73735036  0.27114385  0.52391271    -0.10000
C2028       C  0.72897022  0.26912723  0.54163122    -0.11600
C2029       C  0.73911001  0.26139544  0.55683555    -0.01400
C2030       C  0.75805787  0.25637430  0.55409027    -0.10500
C2031       C  0.76442366  0.26589495  0.50171110     0.05900
H2032       H  0.72907750  0.27690612  0.51244121     0.07900
H2033       H  0.71436865  0.27325704  0.54329696     0.11300
H2034       H  0.76621677  0.25034725  0.56550662     0.11600
H2035       H  0.78087867  0.25375794  0.53445388     0.07900
C2036       C  0.78332786  0.27110518  0.49900775    -0.11200
C2037       C  0.79173102  0.26945582  0.48125152    -0.10500
C2038       C  0.78143346  0.26250519  0.46579416    -0.01400
C2039       C  0.76226298  0.25822347  0.46825230    -0.11600
C2040       C  0.75384032  0.25990924  0.48602790    -0.10000
H2041       H  0.79174322  0.27608991  0.51073072     0.07900
H2042       H  0.80650684  0.27300283  0.47979807     0.11600
H2043       H  0.75396749  0.25281077  0.45663304     0.11300
H2044       H  0.73927311  0.25566083  0.48766764     0.07900
C2045       C  0.82123079  0.40664794  0.70760996    -0.11200
C2046       C  0.82357137  0.39156780  0.72027264     0.05900
C2047       C  0.80872232  0.38665419  0.73235489    -0.10000
C2048       C  0.79161890  0.39618670  0.73145025    -0.11600
C2049       C  0.78887561  0.41074675  0.71828521    -0.01400
C2050       C  0.80389859  0.41608453  0.70649399    -0.10500
C2051       C  0.84120930  0.38053582  0.72092068     0.05900
H2052       H  0.81032784  0.37529128  0.74245407     0.07900
H2053       H  0.78034001  0.39174292  0.74075145     0.11300
H2054       H  0.80215623  0.42730582  0.69627191     0.11600
H2055       H  0.83258003  0.41070016  0.69821810     0.07900
C2056       C  0.84042328  0.36073244  0.72091203    -0.11200
C2057       C  0.85673483  0.35007606  0.72354068    -0.10500
C2058       C  0.87413262  0.35903847  0.72637118    -0.01400
C2059       C  0.87503533  0.37886900  0.72565241    -0.11600
C2060       C  0.85869689  0.38953868  0.72285224    -0.10000
H2061       H  0.82707508  0.35350730  0.71922139     0.07900
H2062       H  0.85562231  0.33484041  0.72391188     0.11600
H2063       H  0.88829443  0.38615701  0.72769501     0.11300
H2064       H  0.85959646  0.40479541  0.72296213     0.07900
C2065       C  0.72114097  0.36942954  0.65212308    -0.11200
C2066       C  0.71879967  0.35187067  0.66087509     0.05900
C2067       C  0.71860452  0.35079761  0.68066373    -0.10000
C2068       C  0.72113957  0.36704873  0.69155767    -0.11600
C2069       C  0.72421686  0.38455464  0.68279099    -0.01400
C2070       C  0.72394925  0.38560789  0.66297339    -0.10500
C2071       C  0.71796218  0.33455818  0.64937423     0.05900
H2072       H  0.71675066  0.33732708  0.68765356     0.07900
H2073       H  0.72122561  0.36583167  0.70678296     0.11300
H2074       H  0.72621423  0.39891796  0.65581001     0.11600
H2075       H  0.72148199  0.37050498  0.63688509     0.07900
C2076       C  0.70469822  0.33258621  0.63480573    -0.11200
C2077       C  0.70405377  0.31598351  0.62410936    -0.10500
C2078       C  0.71695071  0.30134667  0.62760059    -0.01400
C2079       C  0.73054014  0.30368076  0.64184000    -0.11600
C2080       C  0.73092631  0.32004008  0.65271181    -0.10000
H2081       H  0.69462638  0.34372329  0.63199486     0.07900
H2082       H  0.69338183  0.31450550  0.61330035     0.11600
H2083       H  0.74059909  0.29261862  0.64497107     0.11300
H2084       H  0.74143026  0.32141827  0.66370848     0.07900
C2085       C  0.49832386  0.29667337  0.78180209    -0.11200
C2086       C  0.49970403  0.27786054  0.77558734     0.05900
C2087       C  0.48293291  0.26818350  0.77100859    -0.10000
C2088       C  0.46534353  0.27691109  0.77305666    -0.11600
C2089       C  0.46415273  0.29567033  0.77918439    -0.01400
C2090       C  0.48080217  0.30551638  0.78334038    -0.10500
C2091       C  0.51843748  0.26823216  0.77462542     0.05900
H2092       H  0.48331536  0.25385825  0.76576009     0.07900
H2093       H  0.45269262  0.26908473  0.76961645     0.11300
H2094       H  0.48024247  0.31995985  0.78831011     0.11600
H2095       H  0.51071617  0.30452684  0.78595975     0.07900
C2096       C  0.53512111  0.27847138  0.77100111    -0.11200
C2097       C  0.55275878  0.26960297  0.77162126    -0.10500
C2098       C  0.55406281  0.25021245  0.77530668    -0.01400
C2099       C  0.53745809  0.23983265  0.77820650    -0.11600
C2100       C  0.51991673  0.24874023  0.77811122    -0.10000
H2101       H  0.53463859  0.29338831  0.76779678     0.07900
H2102       H  0.56536865  0.27790196  0.76929532     0.11600
H2103       H  0.53807498  0.22489507  0.78139596     0.11300
H2104       H  0.50761067  0.24035923  0.78143609     0.07900
C2105       C  0.65207262  0.24217996  0.71671920    -0.11200
C2106       C  0.64889919  0.22941804  0.70197813     0.05900
C2107       C  0.63425260  0.21614045  0.70366574    -0.10000
C2108       C  0.62326788  0.21538471  0.72009975    -0.11600
C2109       C  0.62658006  0.22813544  0.73489851    -0.01400
C2110       C  0.64098944  0.24162511  0.73291947    -0.10500
C2111       C  0.66057494  0.23058101  0.68472471     0.05900
H2112       H  0.63154791  0.20616601  0.69241825     0.07900
H2113       H  0.61235120  0.20477423  0.72130073     0.11300
H2114       H  0.64401085  0.25158778  0.74409690     0.11600
H2115       H  0.66305477  0.25274435  0.71562825     0.07900
C2116       C  0.65197359  0.23119994  0.66694998    -0.11200
C2117       C  0.66276663  0.23438192  0.65079473    -0.10500
C2118       C  0.68240631  0.23678240  0.65207389    -0.01400
C2119       C  0.69112544  0.23540632  0.66978000    -0.11600
C2120       C  0.68027462  0.23245163  0.68599263    -0.10000
H2121       H  0.63681493  0.22995114  0.66563374     0.07900
H2122       H  0.65567068  0.23526043  0.63730348     0.11600
H2123       H  0.70622700  0.23715626  0.67115943     0.11300
H2124       H  0.68722498  0.23188848  0.69957825     0.07900
C2125       C  0.71397335  0.16545292  0.79435229    -0.11200
C2126       C  0.69961643  0.16193344  0.80748206     0.05900
C2127       C  0.70190989  0.14727428  0.82066199    -0.10000
C2128       C  0.71862064  0.13672702  0.82103586    -0.11600
C2129       C  0.73307261  0.14050436  0.80800714    -0.01400
C2130       C  0.73044894  0.15481787  0.79454675    -0.10500
C2131       C  0.68222129  0.17340947  0.80686737     0.05900
H2132       H  0.69096139  0.14426549  0.83088442     0.07900
H2133       H  0.72030606  0.12578226  0.83156304     0.11300
H2134       H  0.74133700  0.15812590  0.78434907     0.11600
H2135       H  0.71239813  0.17640720  0.78381001     0.07900
C2136       C  0.68330417  0.19309298  0.80455734    -0.11200
C2137       C  0.66700381  0.20374466  0.80161540    -0.10500
C2138       C  0.64938076  0.19484178  0.80071172    -0.01400
C2139       C  0.64822037  0.17527786  0.80383951    -0.11600
C2140       C  0.66449391  0.16466640  0.80701694    -0.10000
H2141       H  0.69683577  0.20017289  0.80461022     0.07900
H2142       H  0.66826178  0.21879961  0.79931278     0.11600
H2143       H  0.63474762  0.16809926  0.80339995     0.11300
H2144       H  0.66330065  0.14952407  0.80870012     0.07900
C2145       C  0.24224202  0.03618252  0.28617984    -0.11200
C2146       C  0.24571778  0.03662423  0.26662322     0.05900
C2147       C  0.24752759  0.05436309  0.25776789    -0.10000
C2148       C  0.24525239  0.07108066  0.26803515    -0.11600
C2149       C  0.24163660  0.07047341  0.28747659    -0.01400
C2150       C  0.24045703  0.05287751  0.29648599    -0.10500
C2151       C  0.24656785  0.01871795  0.25548584     0.05900
H2152       H  0.25064335  0.05541903  0.24286630     0.07900
H2153       H  0.24632443  0.08448662  0.26077130     0.11300
H2154       H  0.23743183  0.05199235  0.31143906     0.11600
H2155       H  0.24026448  0.02295926  0.29354499     0.07900
C2156       C  0.25272680  0.00171142  0.26380779    -0.11200
C2157       C  0.25187569  0.98467793  0.25385347    -0.10500
C2158       C  0.24548018  0.98436171  0.23516262    -0.01400
C2159       C  0.24010163  0.00132754  0.22652079    -0.11600
C2160       C  0.24037574  0.01824882  0.23661815    -0.10000
H2161       H  0.25808824  0.00145397  0.27808364     0.07900
H2162       H  0.25621880  0.97174737  0.26074813     0.11600
H2163       H  0.23486631  0.00137167  0.21217056     0.11300
H2164       H  0.23509188  0.03080623  0.22974190     0.07900
C2165       C  0.52739040  0.77449662  0.24484761    -0.11200
C2166       C  0.51145740  0.76443206  0.25112150     0.05900
C2167       C  0.51362852  0.74554669  0.25664779    -0.10000
C2168       C  0.53126024  0.73684951  0.25573046    -0.11600
C2169       C  0.54714804  0.74681948  0.24923869    -0.01400
C2170       C  0.54506211  0.76577961  0.24392237    -0.10500
C2171       C  0.49262303  0.77355882  0.25162989     0.05900
H2172       H  0.50169146  0.73749296  0.26174307     0.07900
H2173       H  0.53237772  0.72218552  0.25988169     0.11300
H2174       H  0.55698322  0.77374973  0.23865944     0.11600
H2175       H  0.52610946  0.78899851  0.24021184     0.07900
C2176       C  0.49083204  0.79236489  0.25754647    -0.11200
C2177       C  0.47340896  0.80144356  0.25685636    -0.10500
C2178       C  0.45733529  0.79194597  0.25020923    -0.01400
C2179       C  0.45890428  0.77289425  0.24500721    -0.11600
C2180       C  0.47639676  0.76377577  0.24571645    -0.10000
H2181       H  0.50297754  0.80015267  0.26253245     0.07900
H2182       H  0.47266574  0.81612291  0.26103159     0.11600
H2183       H  0.44678900  0.76525337  0.23972487     0.11300
H2184       H  0.47734993  0.74929313  0.24095363     0.07900
C2185       C  0.33356690  0.85851165  0.21720000    -0.11200
C2186       C  0.33626521  0.87799022  0.21465590     0.05900
C2187       C  0.35458478  0.88534528  0.21473773    -0.10000
C2188       C  0.36991226  0.87355592  0.21843909    -0.11600
C2189       C  0.36716074  0.85418977  0.22187757    -0.01400
C2190       C  0.34891250  0.84666838  0.22065170    -0.10500
C2191       C  0.31987409  0.89075405  0.21391372     0.05900
H2192       H  0.35693320  0.90033373  0.21287583     0.07900
H2193       H  0.38387476  0.87969830  0.21909932     0.11300
H2194       H  0.34641235  0.83179376  0.22310420     0.11600
H2195       H  0.31949715  0.85257142  0.21704348     0.07900
C2196       C  0.31780350  0.90416727  0.19946392    -0.11200
C2197       C  0.30171749  0.91564143  0.19879427    -0.10500
C2198       C  0.28772086  0.91400370  0.21275272    -0.01400
C2199       C  0.29037520  0.90113849  0.22761541    -0.11600
C2200       C  0.30619819  0.88957792  0.22811039    -0.10000
H2201       H  0.32832407  0.90534133  0.18844618     0.07900
H2202       H  0.29997897  0.92535404  0.18713012     0.11600
H2203       H  0.27989721  0.89952030  0.23861679     0.11300
H2204       H  0.30772943  0.87958891  0.23958229     0.07900
C2205       C  0.36908435  0.82024338  0.36003212    -0.11200
C2206       C  0.35946604  0.82029067  0.34277015     0.05900
C2207       C  0.33981707  0.81781804  0.34262887    -0.10000
C2208       C  0.33003008  0.81448518  0.35938717    -0.11600
C2209       C  0.33976874  0.81333338  0.37655867    -0.01400
C2210       C  0.35932682  0.81666426  0.37679670    -0.10500
C2211       C  0.36997678  0.82083160  0.32479452     0.05900
H2212       H  0.33212234  0.81793092  0.32943844     0.07900
H2213       H  0.31496900  0.81206445  0.35879890     0.11300
H2214       H  0.36716451  0.81601898  0.38988309     0.11600
H2215       H  0.38424376  0.82202536  0.36043683     0.07900
C2216       C  0.38345952  0.83486486  0.32099749    -0.11200
C2217       C  0.39297395  0.83510168  0.30364114    -0.10500
C2218       C  0.38932286  0.82110637  0.29006682    -0.01400
C2219       C  0.37618458  0.80686135  0.29422914    -0.11600
C2220       C  0.36658405  0.80678479  0.31133018    -0.10000
H2221       H  0.38632420  0.84579058  0.33127942     0.07900
H2222       H  0.40301322  0.84625547  0.30078622     0.11600
H2223       H  0.37304462  0.79585161  0.28411983     0.11300
H2224       H  0.35650581  0.79563381  0.31410162     0.07900
C2225       C  0.23031101  0.82350171  0.14930146    -0.11200
C2226       C  0.21797835  0.83832828  0.14503388     0.05900
C2227       C  0.20468775  0.83600749  0.13053156    -0.10000
C2228       C  0.20331520  0.81876751  0.12092372    -0.11600
C2229       C  0.21545239  0.80377276  0.12550408    -0.01400
C2230       C  0.22915550  0.80647768  0.13957506    -0.10500
C2231       C  0.21912255  0.85603763  0.15594708     0.05900
H2232       H  0.19506633  0.84734390  0.12701778     0.07900
H2233       H  0.19261535  0.81706934  0.11017962     0.11300
H2234       H  0.23875479  0.79524277  0.14345435     0.11600
H2235       H  0.24083841  0.82509726  0.16024349     0.07900
C2236       C  0.21892306  0.85551428  0.17575342    -0.11200
C2237       C  0.22145504  0.87202540  0.18621050    -0.10500
C2238       C  0.22453632  0.88930665  0.17702241    -0.01400
C2239       C  0.22436028  0.88985442  0.15718337    -0.11600
C2240       C  0.22152940  0.87337430  0.14673441    -0.10000
H2241       H  0.21699373  0.84225530  0.18312184     0.07900
H2242       H  0.22149717  0.87118316  0.20145988     0.11600
H2243       H  0.22662947  0.90300101  0.14972062     0.11300
H2244       H  0.22184503  0.87404705  0.13147678     0.07900
C2245       C  0.27576257  0.55032312  0.25837825    -0.11200
C2246       C  0.26577412  0.53571482  0.26741300     0.05900
C2247       C  0.25780118  0.53916959  0.28520001    -0.10000
C2248       C  0.26015995  0.55665296  0.29397161    -0.11600
C2249       C  0.27054104  0.57110782  0.28516656    -0.01400
C2250       C  0.27810585  0.56786052  0.26715933    -0.10500
C2251       C  0.26429591  0.51676141  0.25858627     0.05900
H2252       H  0.24982108  0.52829871  0.29238442     0.07900
H2253       H  0.25405796  0.55875480  0.30782270     0.11300
H2254       H  0.28629888  0.57866140  0.26011232     0.11600
H2255       H  0.28227392  0.54799648  0.24475474     0.07900
C2256       C  0.26094615  0.51502229  0.23915916    -0.11200
C2257       C  0.26109938  0.49731418  0.23053363    -0.10500
C2258       C  0.26474122  0.48091606  0.24110513    -0.01400
C2259       C  0.26734208  0.48254154  0.26067692    -0.11600
C2260       C  0.26705787  0.50029413  0.26934533    -0.10000
H2261       H  0.25845673  0.52741227  0.23057087     0.07900
H2262       H  0.25896551  0.49655590  0.21542885     0.11600
H2263       H  0.27017095  0.47017463  0.26919156     0.11300
H2264       H  0.26976839  0.50119614  0.28434765     0.07900
C2265       C  0.29288285  0.67966646  0.37617854    -0.11200
C2266       C  0.30290417  0.69515285  0.36908682     0.05900
C2267       C  0.30906229  0.69493997  0.35024119    -0.10000
C2268       C  0.30494283  0.67952142  0.33857139    -0.11600
C2269       C  0.29482613  0.66403240  0.34570054    -0.01400
C2270       C  0.28898075  0.66424157  0.36466330    -0.10500
C2271       C  0.30574612  0.71192478  0.38110206     0.05900
H2272       H  0.31662740  0.70689096  0.34445639     0.07900
H2273       H  0.30963325  0.67971816  0.32403311     0.11300
H2274       H  0.28117411  0.65252995  0.37061257     0.11600
H2275       H  0.28801174  0.67954999  0.39066729     0.07900
C2276       C  0.29017102  0.72017616  0.39006735    -0.11200
C2277       C  0.29233115  0.73660261  0.40061255    -0.10500
C2278       C  0.31016105  0.74492387  0.40270790    -0.01400
C2279       C  0.32593448  0.73627607  0.39443616    -0.11600
C2280       C  0.32369812  0.71995761  0.38348830    -0.10000
H2281       H  0.27619704  0.71425539  0.38835980     0.07900
H2282       H  0.27995056  0.74309394  0.40678915     0.11600
H2283       H  0.33976196  0.74262930  0.39566758     0.11300
H2284       H  0.33589695  0.71369970  0.37675271     0.07900
C2285       C  0.99318510  0.79778003  0.28062211    -0.11200
C2286       C  0.99464691  0.77824037  0.27735213     0.05900
C2287       C  0.97783740  0.76790464  0.27465046    -0.10000
C2288       C  0.96019331  0.77678194  0.27558112    -0.11600
C2289       C  0.95893960  0.79628113  0.27868909    -0.01400
C2290       C  0.97562280  0.80668060  0.28103670    -0.10500
C2291       C  0.01353894  0.76873809  0.27716871     0.05900
H2292       H  0.97821156  0.75293915  0.27169637     0.07900
H2293       H  0.94754616  0.76842922  0.27373227     0.11300
H2294       H  0.97508630  0.82170149  0.28381303     0.11600
H2295       H  0.00555730  0.80626642  0.28333475     0.07900
C2296       C  0.02998934  0.77859296  0.27175391    -0.11200
C2297       C  0.04771940  0.76988191  0.27238112    -0.10500
C2298       C  0.04936752  0.75094429  0.27782931    -0.01400
C2299       C  0.03303713  0.74094635  0.28285810    -0.11600
C2300       C  0.01541639  0.74977060  0.28279685    -0.10000
H2301       H  0.02925895  0.79303756  0.26688660     0.07900
H2302       H  0.06010860  0.77786511  0.26836583     0.11600
H2303       H  0.03396956  0.72638520  0.28742042     0.11300
H2304       H  0.00336616  0.74173622  0.28758435     0.07900
C2305       C  0.14645408  0.74844091  0.16633743    -0.11200
C2306       C  0.15058775  0.73496823  0.18023188     0.05900
C2307       C  0.16729446  0.72435842  0.17863431    -0.10000
C2308       C  0.17985434  0.72755181  0.16364584    -0.11600
C2309       C  0.17567714  0.74111592  0.14982422    -0.01400
C2310       C  0.15875548  0.75135502  0.15124129    -0.10500
C2311       C  0.13809459  0.73298992  0.19694041     0.05900
H2312       H  0.17086875  0.71398395  0.18926233     0.07900
H2313       H  0.19270171  0.71934178  0.16276414     0.11300
H2314       H  0.15514422  0.76188518  0.14077225     0.11600
H2315       H  0.13366944  0.75676084  0.16718454     0.07900
C2316       C  0.13238654  0.74914880  0.20688601    -0.11200
C2317       C  0.12201654  0.74751229  0.22355852    -0.10500
C2318       C  0.11681449  0.72969545  0.23052196    -0.01400
C2319       C  0.12164216  0.71353816  0.22007616    -0.11600
C2320       C  0.13237131  0.71516358  0.20351106    -0.10000
H2321       H  0.13666100  0.76305088  0.20219231     0.07900
H2322       H  0.11855396  0.76020236  0.23134307     0.11600
H2323       H  0.11797976  0.69962606  0.22522621     0.11300
H2324       H  0.13645971  0.70250406  0.19599163     0.07900
C2325       C  0.16309126  0.66530099  0.29659464    -0.11200
C2326       C  0.18047912  0.67441202  0.29890436     0.05900
C2327       C  0.18107895  0.69426035  0.29854594    -0.10000
C2328       C  0.16458126  0.70477709  0.29588555    -0.11600
C2329       C  0.14721805  0.69561746  0.29334883    -0.01400
C2330       C  0.14666869  0.67577362  0.29376696    -0.10500
C2331       C  0.19798409  0.66320830  0.30120649     0.05900
H2332       H  0.19431259  0.70163719  0.30043551     0.07900
H2333       H  0.16543938  0.72003081  0.29563645     0.11300
H2334       H  0.13350615  0.66827713  0.29185334     0.11600
H2335       H  0.16225622  0.65004198  0.29659571     0.07900
C2336       C  0.19862751  0.64763629  0.31352230    -0.11200
C2337       C  0.21532256  0.63731061  0.31579696    -0.10500
C2338       C  0.23154345  0.64221079  0.30555135    -0.01400
C2339       C  0.23070906  0.65753028  0.29294997    -0.11600
C2340       C  0.21417273  0.66796701  0.29089326    -0.10000
H2341       H  0.18632392  0.64370641  0.32167782     0.07900
H2342       H  0.21558072  0.62560994  0.32562079     0.11600
H2343       H  0.24299600  0.66173533  0.28490214     0.11300
H2344       H  0.21400034  0.67971256  0.28111442     0.07900
C2345       C  0.27120700  0.00454322  0.77798239    -0.11200
C2346       C  0.26689540  0.00428220  0.75861937     0.05900
C2347       C  0.26509221  0.98663950  0.74958147    -0.10000
C2348       C  0.26782463  0.96979723  0.75961579    -0.11600
C2349       C  0.27200322  0.97025928  0.77895290    -0.01400
C2350       C  0.27350060  0.98779200  0.78802352    -0.10500
C2351       C  0.26508228  0.02239253  0.74797668     0.05900
H2352       H  0.26152509  0.98579220  0.73477125     0.07900
H2353       H  0.26654352  0.95644140  0.75230866     0.11300
H2354       H  0.27700631  0.98859809  0.80287005     0.11600
H2355       H  0.27332363  0.01770811  0.78540837     0.07900
C2356       C  0.25847063  0.03884313  0.75700702    -0.11200
C2357       C  0.25884287  0.05627496  0.74779124    -0.10500
C2358       C  0.26522332  0.05758157  0.72913277    -0.01400
C2359       C  0.27082513  0.04111017  0.71967499    -0.11600
C2360       C  0.27096586  0.02373575  0.72904805    -0.10000
H2361       H  0.25325611  0.03836740  0.77134575     0.07900
H2362       H  0.25429450  0.06878321  0.75530458     0.11600
H2363       H  0.27600334  0.04182312  0.70531339     0.11300
H2364       H  0.27642535  0.01155131  0.72164785     0.07900
C2365       C  0.16119256  0.88378947  0.79943760    -0.11200
C2366       C  0.17828916  0.87381442  0.79970080     0.05900
C2367       C  0.17804578  0.85417678  0.79699250    -0.10000
C2368       C  0.16114172  0.84475311  0.79349793    -0.11600
C2369       C  0.14410574  0.85477747  0.79253808    -0.01400
C2370       C  0.14424605  0.87436311  0.79578947    -0.10500
C2371       C  0.19651151  0.88385005  0.80150047     0.05900
H2372       H  0.19101861  0.84612453  0.79737698     0.07900
H2373       H  0.16147107  0.82964656  0.79122237     0.11300
H2374       H  0.13129302  0.88243508  0.79529983     0.11600
H2375       H  0.16102158  0.89894320  0.80140016     0.07900
C2376       C  0.21128680  0.87938426  0.78912797    -0.11200
C2377       C  0.22863010  0.88844334  0.79060221    -0.10500
C2378       C  0.23170453  0.90216748  0.80455555    -0.01400
C2379       C  0.21687244  0.90685966  0.81687079    -0.11600
C2380       C  0.19935195  0.89782969  0.81528193    -0.10000
H2381       H  0.20937574  0.86891141  0.77817212     0.07900
H2382       H  0.23972423  0.88451414  0.78086056     0.11600
H2383       H  0.21885722  0.91735650  0.82778452     0.11300
H2384       H  0.18815702  0.90149119  0.82501284     0.07900
C2385       C  0.28577354  0.76769942  0.00076146    -0.11200
C2386       C  0.26714723  0.76152421  0.00339560     0.05900
C2387       C  0.25727331  0.75419537  0.98779563    -0.10000
C2388       C  0.26597133  0.75261731  0.97013952    -0.11600
C2389       C  0.28477203  0.75826550  0.96767161    -0.01400
C2390       C  0.29447840  0.76609936  0.98311112    -0.10500
C2391       C  0.25808949  0.76223140  0.02235722     0.05900
H2392       H  0.24297853  0.74908779  0.98936977     0.07900
H2393       H  0.25816152  0.74640395  0.95858275     0.11300
H2394       H  0.30897525  0.77065461  0.98166099     0.11600
H2395       H  0.29366372  0.77367944  0.01238344     0.07900
C2396       C  0.26811503  0.75729623  0.03880380    -0.11200
C2397       C  0.25896387  0.75643214  0.05636451    -0.10500
C2398       C  0.23965008  0.76057847  0.05779850    -0.01400
C2399       C  0.22991225  0.76625834  0.04146182    -0.11600
C2400       C  0.23898592  0.76706110  0.02402249    -0.10000
H2401       H  0.28284712  0.75340095  0.03798539     0.07900
H2402       H  0.26684776  0.75200883  0.06867071     0.11600
H2403       H  0.21504838  0.76968542  0.04202014     0.11300
H2404       H  0.23094127  0.77129504  0.01175259     0.07900
C2405       C  0.29238122  0.82353302  0.88547182    -0.11200
C2406       C  0.30859984  0.83179089  0.87770204     0.05900
C2407       C  0.32622835  0.82333076  0.88089453    -0.10000
C2408       C  0.32751147  0.80672303  0.89159931    -0.11600
C2409       C  0.31112660  0.79818718  0.89880042    -0.01400
C2410       C  0.29360861  0.80682367  0.89574426    -0.10500
C2411       C  0.30663038  0.84893778  0.86597460     0.05900
H2412       H  0.33891232  0.82950928  0.87503926     0.07900
H2413       H  0.34114623  0.80013303  0.89355975     0.11300
H2414       H  0.28077809  0.80044643  0.90105168     0.11600
H2415       H  0.27862760  0.82972271  0.88306674     0.07900
C2416       C  0.31366260  0.84952912  0.84744130    -0.11200
C2417       C  0.30935375  0.86480105  0.83560977    -0.10500
C2418       C  0.29817962  0.87977720  0.84227268    -0.01400
C2419       C  0.29189868  0.87944571  0.86107906    -0.11600
C2420       C  0.29598681  0.86416398  0.87274330    -0.10000
H2421       H  0.32181180  0.83784815  0.84190792     0.07900
H2422       H  0.31454500  0.86479215  0.82124090     0.11600
H2423       H  0.28338312  0.89081806  0.86669933     0.11300
H2424       H  0.29050078  0.86403838  0.88700953     0.07900
C2425       C  0.34631919  0.71896298  0.84221496    -0.11200
C2426       C  0.36549254  0.72397734  0.84195192     0.05900
C2427       C  0.37348391  0.73233953  0.85796707    -0.10000
C2428       C  0.36249642  0.73596713  0.87385086    -0.11600
C2429       C  0.34317715  0.73155750  0.87400451    -0.01400
C2430       C  0.33518112  0.72287511  0.85809198    -0.10500
C2431       C  0.37691353  0.72192032  0.82462001     0.05900
H2432       H  0.38824253  0.73626640  0.85809423     0.07900
H2433       H  0.36908499  0.74265556  0.88589189     0.11300
H2434       H  0.32035426  0.71924622  0.85788428     0.11600
H2435       H  0.33984870  0.71262768  0.82992176     0.07900
C2436       C  0.37773780  0.70472682  0.81478565    -0.11200
C2437       C  0.38817044  0.70332382  0.79803994    -0.10500
C2438       C  0.39746230  0.71923029  0.79074241    -0.01400
C2439       C  0.39680995  0.73629123  0.80072295    -0.11600
C2440       C  0.38682417  0.73756779  0.81761028    -0.10000
H2441       H  0.37023044  0.69247966  0.82000117     0.07900
H2442       H  0.38826868  0.69011575  0.79035906     0.11600
H2443       H  0.40376836  0.74875480  0.79524529     0.11300
H2444       H  0.38629369  0.75099365  0.82489074     0.07900
C2445       C  0.25285333  0.53442719  0.74090205    -0.11200
C2446       C  0.24605856  0.53221880  0.75938699     0.05900
C2447       C  0.23911291  0.54817512  0.76896291    -0.10000
C2448       C  0.23856755  0.56582236  0.76008540    -0.11600
C2449       C  0.24494906  0.56789634  0.74143358    -0.01400
C2450       C  0.25230365  0.55204416  0.73203522    -0.10500
C2451       C  0.24574389  0.51327777  0.76847228     0.05900
H2452       H  0.23355722  0.54690492  0.78313804     0.07900
H2453       H  0.23263936  0.57771096  0.76763207     0.11300
H2454       H  0.25734573  0.55316753  0.71765532     0.11600
H2455       H  0.25853601  0.52248969  0.73324951     0.07900
C2456       C  0.24026753  0.49716489  0.75823382    -0.11200
C2457       C  0.23898132  0.47952458  0.76708146    -0.10500
C2458       C  0.24321786  0.47760995  0.78633928    -0.01400
C2459       C  0.24920740  0.49362871  0.79641418    -0.11600
C2460       C  0.25041520  0.51123417  0.78760685    -0.10000
H2461       H  0.23639714  0.49830178  0.74350664     0.07900
H2462       H  0.23423342  0.46749383  0.75896190     0.11600
H2463       H  0.25259685  0.49266633  0.81127500     0.11300
H2464       H  0.25494451  0.52329278  0.79581156     0.07900
C2465       C  0.33713042  0.69055974  0.71764782    -0.11200
C2466       C  0.33768344  0.67074167  0.71718199     0.05900
C2467       C  0.35501457  0.66143020  0.71859964    -0.10000
C2468       C  0.37147583  0.67170675  0.72138397    -0.11600
C2469       C  0.37091474  0.69150145  0.72269979    -0.01400
C2470       C  0.35368121  0.70090497  0.72029371    -0.10500
C2471       C  0.32015413  0.65967311  0.71683205     0.05900
H2472       H  0.35570980  0.64616156  0.71841718     0.07900
H2473       H  0.38458691  0.66406298  0.72309060     0.11300
H2474       H  0.35289724  0.71613997  0.72115117     0.11600
H2475       H  0.32383356  0.69797372  0.71641315     0.07900
C2476       C  0.30580723  0.66377811  0.72977782    -0.11200
C2477       C  0.28941412  0.65301656  0.73008566    -0.10500
C2478       C  0.28696204  0.63809465  0.71727197    -0.01400
C2479       C  0.30143250  0.63381855  0.70444570    -0.11600
C2480       C  0.31800640  0.64445874  0.70433610    -0.10000
H2481       H  0.30736659  0.67522924  0.73977492     0.07900
H2482       H  0.27844840  0.65672197  0.74005970     0.11600
H2483       H  0.29982883  0.62246058  0.69435973     0.11300
H2484       H  0.32901844  0.64103479  0.69431173     0.07900
C2485       C  0.23726876  0.78504128  0.52412754    -0.11200
C2486       C  0.25656094  0.78048673  0.52478689     0.05900
C2487       C  0.26504183  0.77787936  0.54260026    -0.10000
C2488       C  0.25458113  0.78027351  0.55922642    -0.11600
C2489       C  0.23535896  0.78481400  0.55832604    -0.01400
C2490       C  0.22679569  0.78691670  0.54063201    -0.10500
C2491       C  0.26775025  0.77966214  0.50695069     0.05900
H2492       H  0.27976499  0.77407027  0.54375671     0.07900
H2493       H  0.26146198  0.77850180  0.57274046     0.11300
H2494       H  0.21204154  0.79071256  0.53953243     0.11600
H2495       H  0.23024512  0.78780956  0.51087743     0.07900
C2496       C  0.25910666  0.77453313  0.48979458    -0.11200
C2497       C  0.26864604  0.77658393  0.47267568    -0.10500
C2498       C  0.28727059  0.78311906  0.47235801    -0.01400
C2499       C  0.29644941  0.78692677  0.48946360    -0.11600
C2500       C  0.28673800  0.78544377  0.50656935    -0.10000
H2501       H  0.24477041  0.76933559  0.48947103     0.07900
H2502       H  0.26138433  0.77329713  0.45965109     0.11600
H2503       H  0.31082586  0.79208156  0.48953880     0.11300
H2504       H  0.29389604  0.78973959  0.51932948     0.07900
C2505       C  0.20202771  0.71319982  0.63356240    -0.11200
C2506       C  0.21390892  0.71257407  0.64942775     0.05900
C2507       C  0.22404122  0.72875957  0.65449430    -0.10000
C2508       C  0.22226561  0.74531033  0.64405997    -0.11600
C2509       C  0.21014094  0.74617324  0.62839456    -0.01400
C2510       C  0.20002750  0.72994408  0.62319907    -0.10500
C2511       C  0.21610216  0.69512617  0.66068736     0.05900
H2512       H  0.23349234  0.72855419  0.66648589     0.07900
H2513       H  0.23024940  0.75755758  0.64848288     0.11300
H2514       H  0.19056426  0.73022106  0.61122769     0.11600
H2515       H  0.19406700  0.70084331  0.62941116     0.07900
C2516       C  0.21524321  0.69581333  0.68048743    -0.11200
C2517       C  0.21859903  0.67961788  0.69123765    -0.10500
C2518       C  0.22306625  0.66246979  0.68238151    -0.01400
C2519       C  0.22364990  0.66175738  0.66255051    -0.11600
C2520       C  0.22009873  0.67790782  0.65180938    -0.10000
H2521       H  0.21207077  0.70894197  0.68763825     0.07900
H2522       H  0.21799955  0.68059482  0.70646974     0.11600
H2523       H  0.22703196  0.64873685  0.65530783     0.11300
H2524       H  0.22102028  0.67708107  0.63658069     0.07900
C2525       C  0.12359824  0.80579753  0.70128110    -0.11200
C2526       C  0.13206355  0.82169537  0.69306171     0.05900
C2527       C  0.12956389  0.83946748  0.70146959    -0.10000
C2528       C  0.11931262  0.84116410  0.71827178    -0.11600
C2529       C  0.11185759  0.82503568  0.72704162    -0.01400
C2530       C  0.11373658  0.80742740  0.71820186    -0.10500
C2531       C  0.14438027  0.81926725  0.67643578     0.05900
H2532       H  0.13590638  0.85191259  0.69526845     0.07900
H2533       H  0.11819460  0.85485144  0.72497335     0.11300
H2534       H  0.10814553  0.79479590  0.72475320     0.11600
H2535       H  0.12542598  0.79193881  0.69509996     0.07900
C2536       C  0.16292907  0.82623199  0.67651637    -0.11200
C2537       C  0.17525635  0.82198766  0.66167523    -0.10500
C2538       C  0.16911603  0.81089076  0.64646321    -0.01400
C2539       C  0.15035824  0.80446771  0.64619262    -0.11600
C2540       C  0.13816499  0.80852519  0.66106473    -0.10000
H2541       H  0.16806189  0.83437693  0.68837229     0.07900
H2542       H  0.18959737  0.82718985  0.66219892     0.11600
H2543       H  0.14515428  0.79596012  0.63462756     0.11300
H2544       H  0.12391097  0.80305500  0.66070195     0.07900
C2545       C  0.76188148  0.03579927  0.78698578    -0.11200
C2546       C  0.76571473  0.03315664  0.76775083     0.05900
C2547       C  0.77135211  0.04873660  0.75681132    -0.10000
C2548       C  0.77367578  0.06648224  0.76509413    -0.11600
C2549       C  0.77036612  0.06896406  0.78445670    -0.01400
C2550       C  0.76415719  0.05350839  0.79524298    -0.10500
C2551       C  0.76476100  0.01405545  0.75932144     0.05900
H2552       H  0.77462471  0.04706082  0.74198327     0.07900
H2553       H  0.77856516  0.07810725  0.75646471     0.11300
H2554       H  0.76146715  0.05497143  0.81021133     0.11600
H2555       H  0.75729145  0.02411154  0.79569624     0.07900
C2556       C  0.77209480  0.99839756  0.76905449    -0.11200
C2557       C  0.77270417  0.98066368  0.76048029    -0.10500
C2558       C  0.76606034  0.97828384  0.74198938    -0.01400
C2559       C  0.75802515  0.99376166  0.73256142    -0.11600
C2560       C  0.75737257  0.01146649  0.74114707    -0.10000
H2561       H  0.77807388  0.00001007  0.78301065     0.07900
H2562       H  0.77908879  0.96901648  0.76802793     0.11600
H2563       H  0.75269907  0.99231582  0.71832272     0.11300
H2564       H  0.75135780  0.02321376  0.73345349     0.07900
C2565       C  0.75311504  0.76997614  0.48937969    -0.11200
C2566       C  0.74466170  0.76459043  0.50657651     0.05900
C2567       C  0.72590250  0.75807971  0.50622244    -0.10000
C2568       C  0.71605241  0.75671783  0.48923125    -0.11600
C2569       C  0.72484419  0.76132252  0.47211518    -0.01400
C2570       C  0.74341343  0.76806258  0.47231778    -0.10500
C2571       C  0.75561040  0.76470683  0.52458656     0.05900
H2572       H  0.71893190  0.75336870  0.51895467     0.07900
H2573       H  0.70176711  0.75131765  0.48940257     0.11300
H2574       H  0.75040295  0.77189936  0.45927846     0.11600
H2575       H  0.76729941  0.77556234  0.48899799     0.07900
C2576       C  0.77519098  0.76141988  0.52446655    -0.11200
C2577       C  0.78527934  0.76012767  0.54131225    -0.10500
C2578       C  0.77601462  0.76158361  0.55873485    -0.01400
C2579       C  0.75658646  0.76521794  0.55902869    -0.11600
C2580       C  0.74653970  0.76704821  0.54214642    -0.10000
H2581       H  0.78273546  0.75909324  0.51140951     0.07900
H2582       H  0.80024106  0.75712908  0.54070121     0.11600
H2583       H  0.74915663  0.76656273  0.57231488     0.11300
H2584       H  0.73162182  0.77011333  0.54293675     0.07900
C2585       C  0.81096052  0.83170147  0.63748120    -0.11200
C2586       C  0.79587652  0.83441161  0.65003025     0.05900
C2587       C  0.78186631  0.82054897  0.65150356    -0.10000
C2588       C  0.78312787  0.80400435  0.64098207    -0.11600
C2589       C  0.79852062  0.80091611  0.62887521    -0.01400
C2590       C  0.81233206  0.81501384  0.62703509    -0.10500
C2591       C  0.79467103  0.85155858  0.66174665     0.05900
H2592       H  0.76995863  0.82250825  0.66087846     0.07900
H2593       H  0.77222408  0.79344009  0.64266481     0.11300
H2594       H  0.82438372  0.81296825  0.61787670     0.11600
H2595       H  0.82192163  0.84226106  0.63616688     0.07900
C2596       C  0.79119719  0.85009183  0.68119893    -0.11200
C2597       C  0.78896845  0.86629286  0.69216873    -0.10500
C2598       C  0.78994984  0.88421540  0.68380032    -0.01400
C2599       C  0.79380269  0.88565424  0.66439041    -0.11600
C2600       C  0.79626442  0.86945275  0.65347793    -0.10000
H2601       H  0.79007561  0.83638095  0.68786455     0.07900
H2602       H  0.78599136  0.86477894  0.70707844     0.11600
H2603       H  0.79463936  0.89930603  0.65757034     0.11300
H2604       H  0.79883387  0.87087348  0.63848106     0.07900
C2605       C  0.72507128  0.77706132  0.00427983    -0.11200
C2606       C  0.74451689  0.78020897  0.00632241     0.05900
C2607       C  0.75532755  0.78410540  0.99012984    -0.10000
C2608       C  0.74679740  0.78549718  0.97242902    -0.11600
C2609       C  0.72725908  0.78305623  0.97051558    -0.01400
C2610       C  0.71653634  0.77845867  0.98656789    -0.10500
C2611       C  0.75340749  0.78052368  0.02530053     0.05900
H2612       H  0.77029822  0.78685180  0.99122183     0.07900
H2613       H  0.75542536  0.78910307  0.96034424     0.11300
H2614       H  0.70144031  0.77644515  0.98554396     0.11600
H2615       H  0.71640434  0.77375864  0.01642031     0.07900
C2616       C  0.74417166  0.78903447  0.04068694    -0.11200
C2617       C  0.75335917  0.79111846  0.05802201    -0.10500
C2618       C  0.77197777  0.78479280  0.06028579    -0.01400
C2619       C  0.78089607  0.77557041  0.04516441    -0.11600
C2620       C  0.77170684  0.77342210  0.02789946    -0.10000
H2621       H  0.73013837  0.79482384  0.03911163     0.07900
H2622       H  0.74614027  0.79829683  0.06941453     0.11600
H2623       H  0.79518977  0.77037899  0.04651686     0.11300
H2624       H  0.77906790  0.76646690  0.01646244     0.07900
C2625       C  0.52014646  0.79144365  0.75546278    -0.11200
C2626       C  0.52007435  0.77165395  0.75646970     0.05900
C2627       C  0.53744855  0.76199403  0.75601319    -0.10000
C2628       C  0.55434803  0.77185957  0.75350429    -0.11600
C2629       C  0.55419292  0.79156946  0.75182710    -0.01400
C2630       C  0.53699231  0.80126519  0.75334969    -0.10500
C2631       C  0.50187809  0.76125891  0.75621019     0.05900
H2632       H  0.53798439  0.74677740  0.75718439     0.07900
H2633       H  0.56745294  0.76407594  0.75255002     0.11300
H2634       H  0.53640822  0.81647979  0.75201625     0.11600
H2635       H  0.50713206  0.79940855  0.75536255     0.07900
C2636       C  0.48551591  0.76901111  0.76446453    -0.11200
C2637       C  0.46796328  0.76042715  0.76188507    -0.10500
C2638       C  0.46662624  0.74363919  0.75159239    -0.01400
C2639       C  0.48295644  0.73538602  0.74413884    -0.11600
C2640       C  0.50036067  0.74421250  0.74619362    -0.10000
H2641       H  0.48619057  0.78188507  0.77263988     0.07900
H2642       H  0.45547531  0.76685142  0.76790320     0.11600
H2643       H  0.48211866  0.72248874  0.73597560     0.11300
H2644       H  0.51245108  0.73801972  0.73923613     0.07900
C2645       C  0.62830909  0.82928926  0.82021095    -0.11200
C2646       C  0.64453467  0.81803289  0.82193922     0.05900
C2647       C  0.65061590  0.80737247  0.80643272    -0.10000
C2648       C  0.64060407  0.80779800  0.78954822    -0.11600
C2649       C  0.62440663  0.81906980  0.78772317    -0.01400
C2650       C  0.61839961  0.82993489  0.80315986    -0.10500
C2651       C  0.65472085  0.81660332  0.84005169     0.05900
H2652       H  0.66292890  0.79839550  0.80749729     0.07900
H2653       H  0.64566584  0.79937914  0.77784381     0.11300
H2654       H  0.60601366  0.83880106  0.80208567     0.11600
H2655       H  0.62339384  0.83765762  0.83201232     0.07900
C2656       C  0.67450984  0.81738253  0.84055026    -0.11200
C2657       C  0.68417819  0.81427745  0.85743339    -0.10500
C2658       C  0.67420452  0.81017769  0.87405390    -0.01400
C2659       C  0.65439288  0.80990914  0.87360972    -0.11600
C2660       C  0.64474676  0.81316440  0.85678388    -0.10000
H2661       H  0.68248478  0.82015027  0.82780991     0.07900
H2662       H  0.69943943  0.81462239  0.85737437     0.11600
H2663       H  0.64631783  0.80680750  0.88620586     0.11300
H2664       H  0.62950343  0.81230095  0.85670479     0.07900
C2665       C  0.65772754  0.88511935  0.72135729    -0.11200
C2666       C  0.67458486  0.87756716  0.71442413     0.05900
C2667       C  0.67557436  0.85826223  0.71001728    -0.10000
C2668       C  0.66007723  0.84649278  0.71339137    -0.11600
C2669       C  0.64340248  0.85398978  0.72102344    -0.01400
C2670       C  0.64226599  0.87348809  0.72452252    -0.10500
C2671       C  0.69147307  0.88959587  0.71345014     0.05900
H2672       H  0.68856437  0.85218865  0.70474978     0.07900
H2673       H  0.66129707  0.83153620  0.71051822     0.11300
H2674       H  0.62957299  0.87974389  0.73027396     0.11600
H2675       H  0.65668042  0.89999507  0.72471976     0.07900
C2676       C  0.70219904  0.89080482  0.69686658    -0.11200
C2677       C  0.71862277  0.90170295  0.69650193    -0.10500
C2678       C  0.72470665  0.91105051  0.71286112    -0.01400
C2679       C  0.71382720  0.91004352  0.72932702    -0.11600
C2680       C  0.69719708  0.89959409  0.72954760    -0.10000
H2681       H  0.69795274  0.88319578  0.68432274     0.07900
H2682       H  0.72706190  0.90206325  0.68376391     0.11600
H2683       H  0.71841687  0.91702504  0.74211645     0.11300
H2684       H  0.68914158  0.89873070  0.74250902     0.07900
C2685       C  0.99009500  0.75499834  0.76781490    -0.11200
C2686       C  0.99192136  0.77356109  0.77448485     0.05900
C2687       C  0.97602907  0.78259523  0.78219973    -0.10000
C2688       C  0.95881931  0.77301784  0.78371697    -0.11600
C2689       C  0.95721125  0.75424514  0.77754050    -0.01400
C2690       C  0.97296801  0.74545298  0.76934350    -0.10500
C2691       C  0.01056407  0.78307093  0.77401634     0.05900
H2692       H  0.97706566  0.79684497  0.78761152     0.07900
H2693       H  0.94694626  0.78011175  0.79019643     0.11300
H2694       H  0.97216552  0.73103279  0.76435240     0.11600
H2695       H  0.00199293  0.74778366  0.76151484     0.07900
C2696       C  0.02692493  0.77303804  0.77895112    -0.11200
C2697       C  0.04450685  0.78187225  0.77884106    -0.10500
C2698       C  0.04616128  0.80097186  0.77382100    -0.01400
C2699       C  0.02983592  0.81101031  0.76873157    -0.11600
C2700       C  0.01219997  0.80214837  0.76885350    -0.10000
H2701       H  0.02608233  0.75841277  0.78330571     0.07900
H2702       H  0.05676709  0.77381313  0.78306796     0.11600
H2703       H  0.03065152  0.82578079  0.76489415     0.11300
H2704       H  0.99985398  0.81018314  0.76484147     0.07900
C2705       C  0.86345373  0.74075337  0.71663319    -0.11200
C2706       C  0.86808963  0.72842622  0.70190436     0.05900
C2707       C  0.88344589  0.71607793  0.70401807    -0.10000
C2708       C  0.89366774  0.71574203  0.72092730    -0.11600
C2709       C  0.88887002  0.72803777  0.73572943    -0.01400
C2710       C  0.87378744  0.74065616  0.73329299    -0.10500
C2711       C  0.85697984  0.72904789  0.68432732     0.05900
H2712       H  0.88725713  0.70648389  0.69275592     0.07900
H2713       H  0.90514822  0.70579211  0.72249246     0.11300
H2714       H  0.86963598  0.75021826  0.74446209     0.11600
H2715       H  0.85184672  0.75058535  0.71519146     0.07900
C2716       C  0.83719577  0.72875507  0.68511621    -0.11200
C2717       C  0.82653622  0.73185897  0.66886664    -0.10500
C2718       C  0.83549661  0.73556859  0.65160092    -0.01400
C2719       C  0.85530120  0.73511787  0.65069318    -0.11600
C2720       C  0.86595744  0.73175061  0.66691527    -0.10000
H2721       H  0.83000756  0.72656905  0.69842661     0.07900
H2722       H  0.81130809  0.73201655  0.66995421     0.11600
H2723       H  0.86257108  0.73776573  0.63751727     0.11300
H2724       H  0.88119750  0.73212810  0.66603247     0.07900
C2725       C  0.74208413  0.54878146  0.75851965    -0.11200
C2726       C  0.74942936  0.53322179  0.76841493     0.05900
C2727       C  0.75486855  0.53562371  0.78731193    -0.10000
C2728       C  0.75224602  0.55294371  0.79634627    -0.11600
C2729       C  0.74417636  0.56824921  0.78666138    -0.01400
C2730       C  0.73951703  0.56611794  0.76753887    -0.10500
C2731       C  0.75016340  0.51432403  0.75939244     0.05900
H2732       H  0.76086784  0.52401032  0.79521352     0.07900
H2733       H  0.75611855  0.55420034  0.81106533     0.11300
H2734       H  0.73326118  0.57764883  0.75971122     0.11600
H2735       H  0.73754369  0.54736123  0.74401275     0.07900
C2736       C  0.74482987  0.49810431  0.76953929    -0.11200
C2737       C  0.74351192  0.48060367  0.76053769    -0.10500
C2738       C  0.74747894  0.47898242  0.74120889    -0.01400
C2739       C  0.75358987  0.49502539  0.73125837    -0.11600
C2740       C  0.75493220  0.51248996  0.74024992    -0.10000
H2741       H  0.74086405  0.49906746  0.78425783     0.07900
H2742       H  0.73876790  0.46849382  0.76856060     0.11600
H2743       H  0.75687947  0.49420998  0.71635952     0.11300
H2744       H  0.75940179  0.52463666  0.73212771     0.07900
C2745       C  0.80521292  0.65265730  0.79019442    -0.11200
C2746       C  0.81503401  0.65851914  0.80631716     0.05900
C2747       C  0.80802453  0.65384741  0.82423867    -0.10000
C2748       C  0.79131485  0.64351454  0.82599854    -0.11600
C2749       C  0.78118884  0.63815012  0.80985864    -0.01400
C2750       C  0.78832075  0.64273654  0.79194955    -0.10500
C2751       C  0.83239381  0.66977050  0.80429215     0.05900
H2752       H  0.81548058  0.65821625  0.83682506     0.07900
H2753       H  0.78598008  0.64028324  0.83995098     0.11300
H2754       H  0.78073955  0.63877473  0.77930082     0.11600
H2755       H  0.81037976  0.65620427  0.77625064     0.07900
C2756       C  0.84725181  0.66306718  0.79310387    -0.11200
C2757       C  0.86340609  0.67398476  0.79049293    -0.10500
C2758       C  0.86480278  0.69197748  0.79869354    -0.01400
C2759       C  0.84992710  0.69868056  0.80993232    -0.11600
C2760       C  0.83390547  0.68755386  0.81287377    -0.10000
H2761       H  0.84632224  0.64937171  0.78638724     0.07900
H2762       H  0.87464258  0.66851224  0.78170350     0.11600
H2763       H  0.85070032  0.71248249  0.81643753     0.11300
H2764       H  0.82249013  0.69299645  0.82145074     0.07900
C2765       C  0.70627801  0.69460966  0.84560685    -0.11200
C2766       C  0.70531731  0.69365264  0.86539540     0.05900
C2767       C  0.70740400  0.67612985  0.87433024    -0.10000
C2768       C  0.71148579  0.66002564  0.86373941    -0.11600
C2769       C  0.71335555  0.66113950  0.84401246    -0.01400
C2770       C  0.71017699  0.67847311  0.83499221    -0.10500
C2771       C  0.70430479  0.71114626  0.87670086     0.05900
H2772       H  0.70683498  0.67506675  0.88956149     0.07900
H2773       H  0.71366146  0.64678622  0.87105468     0.11300
H2774       H  0.71137199  0.67970600  0.81981112     0.11600
H2775       H  0.70453847  0.70797971  0.83840637     0.07900
C2776       C  0.71653137  0.72605796  0.87238455    -0.11200
C2777       C  0.71648263  0.74241582  0.88320229    -0.10500
C2778       C  0.70403135  0.74440607  0.89849865    -0.01400
C2779       C  0.69170264  0.72951421  0.90289072    -0.11600
C2780       C  0.69199311  0.71287660  0.89217268    -0.10000
H2781       H  0.72637473  0.72494953  0.86074547     0.07900
H2782       H  0.72603038  0.75369407  0.87931590     0.11600
H2783       H  0.68188265  0.73074918  0.91452806     0.11300
H2784       H  0.68247229  0.70148499  0.89577747     0.07900
C2785       C  0.90520567  0.94916391  0.71334833    -0.11200
C2786       C  0.89041643  0.95701808  0.70265608     0.05900
C2787       C  0.89488995  0.96727883  0.68627895    -0.10000
C2788       C  0.91355238  0.96973932  0.68079009    -0.11600
C2789       C  0.92823319  0.96166307  0.69126952    -0.01400
C2790       C  0.92395878  0.95131064  0.70758399    -0.10500
C2791       C  0.87034383  0.95380319  0.70776738     0.05900
H2792       H  0.88396737  0.97304532  0.67732768     0.07900
H2793       H  0.91646759  0.97762104  0.66801938     0.11300
H2794       H  0.93509975  0.94507785  0.71595978     0.11600
H2795       H  0.90233073  0.94139209  0.72617459     0.07900
C2796       C  0.86456946  0.93654878  0.71570401    -0.11200
C2797       C  0.84545799  0.93269488  0.71836257    -0.10500
C2798       C  0.83176906  0.94582306  0.71274701    -0.01400
C2799       C  0.83743321  0.96333025  0.70556189    -0.11600
C2800       C  0.85654377  0.96740935  0.70338408    -0.10000
H2801       H  0.87469620  0.92563548  0.71905523     0.07900
H2802       H  0.84135004  0.91905525  0.72391179     0.11600
H2803       H  0.82707012  0.97377427  0.70144793     0.11300
H2804       H  0.86045785  0.98109492  0.69785022     0.07900
C2805       C  0.17545275  0.87477960  0.57377488    -0.11200
C2806       C  0.19048825  0.88760857  0.57554383     0.05900
C2807       C  0.20847672  0.88076271  0.58003454    -0.10000
C2808       C  0.21121444  0.86164846  0.58367142    -0.11600
C2809       C  0.19603563  0.84893841  0.58285130    -0.01400
C2810       C  0.17821462  0.85555547  0.57738023    -0.10500
C2811       C  0.18729140  0.90817360  0.57380869     0.05900
H2812       H  0.22037150  0.89027923  0.58111881     0.07900
H2813       H  0.22516451  0.85689550  0.58766649     0.11300
H2814       H  0.16627224  0.84605936  0.57675966     0.11600
H2815       H  0.16140345  0.87972730  0.57043315     0.07900
C2816       C  0.17582118  0.91542723  0.55942777    -0.11200
C2817       C  0.17225382  0.93476955  0.55835267    -0.10500
C2818       C  0.17997129  0.94721377  0.57173136    -0.01400
C2819       C  0.19168314  0.93999602  0.58594204    -0.11600
C2820       C  0.19533578  0.92066353  0.58694793    -0.10000
H2821       H  0.16960706  0.90613132  0.54902823     0.07900
H2822       H  0.16317449  0.93993153  0.54721547     0.11600
H2823       H  0.19778761  0.94923924  0.59645271     0.11300
H2824       H  0.20405995  0.91541251  0.59832627     0.07900
C2825       C  0.06349642  0.96393666  0.64123987    -0.11200
C2826       C  0.06713380  0.98057290  0.63107261     0.05900
C2827       C  0.05388094  0.99524821  0.63150849    -0.10000
C2828       C  0.03700848  0.99312100  0.64135731    -0.11600
C2829       C  0.03295970  0.97621798  0.65092199    -0.01400
C2830       C  0.04649538  0.96174303  0.65104494    -0.10500
C2831       C  0.08449532  0.98264426  0.61969678     0.05900
H2832       H  0.05653233  0.00834856  0.62408897     0.07900
H2833       H  0.02694359  0.00461038  0.64112107     0.11300
H2834       H  0.04374744  0.94857293  0.65829064     0.11600
H2835       H  0.07353759  0.95242527  0.64110019     0.07900
C2836       C  0.10214147  0.97807539  0.62735917    -0.11200
C2837       C  0.11857479  0.98118759  0.61694136    -0.10500
C2838       C  0.11759965  0.98857736  0.59856781    -0.01400
C2839       C  0.09992591  0.99251918  0.59065715    -0.11600
C2840       C  0.08351894  0.98972980  0.60119682    -0.10000
H2841       H  0.10324699  0.97265260  0.64160002     0.07900
H2842       H  0.13207333  0.97797379  0.62330975     0.11600
H2843       H  0.09883343  0.99830122  0.57655602     0.11300
H2844       H  0.07003434  0.99317200  0.59492220     0.07900
C2845       C  0.09098151  0.21541831  0.65370319    -0.11200
C2846       C  0.07269408  0.21008104  0.64824119     0.05900
C2847       C  0.05909637  0.20685671  0.66243846    -0.10000
C2848       C  0.06385739  0.20840401  0.68153497    -0.11600
C2849       C  0.08210752  0.21378122  0.68675393    -0.01400
C2850       C  0.09553575  0.21748561  0.67270455    -0.10500
C2851       C  0.06826607  0.20684555  0.62793637     0.05900
H2852       H  0.04475242  0.20313021  0.65885502     0.07900
H2853       H  0.05324283  0.20570739  0.69219244     0.11300
H2854       H  0.10978528  0.22149350  0.67646124     0.11600
H2855       H  0.10201183  0.21753013  0.64336804     0.07900
C2856       C  0.07758451  0.21701026  0.61356239    -0.11200
C2857       C  0.07483728  0.21244974  0.59454233    -0.10500
C2858       C  0.06240278  0.19793376  0.58950362    -0.01400
C2859       C  0.05244784  0.18840851  0.60376450    -0.11600
C2860       C  0.05546423  0.19266452  0.62270082    -0.10000
H2861       H  0.08718747  0.22836674  0.61696364     0.07900
H2862       H  0.08255612  0.22013174  0.58382131     0.11600
H2863       H  0.04280615  0.17706767  0.60034695     0.11300
H2864       H  0.04827227  0.18423418  0.63320116     0.07900
C2865       C  0.12178638  0.12218914  0.55523198    -0.11200
C2866       C  0.11445218  0.10563761  0.56311878     0.05900
C2867       C  0.09497368  0.10413676  0.56630842    -0.10000
C2868       C  0.08288837  0.11885301  0.56109456    -0.11600
C2869       C  0.09019545  0.13530059  0.55278638    -0.01400
C2870       C  0.10980209  0.13693471  0.55023960    -0.10500
C2871       C  0.12682689  0.08921617  0.56593793     0.05900
H2872       H  0.08907686  0.09130313  0.57215273     0.07900
H2873       H  0.06786559  0.11725579  0.56329164     0.11300
H2874       H  0.11590114  0.14948237  0.54400377     0.11600
H2875       H  0.13677486  0.12352662  0.55260573     0.07900
C2876       C  0.13634021  0.08161424  0.55036836    -0.11200
C2877       C  0.14626197  0.06476295  0.55211849    -0.10500
C2878       C  0.14718827  0.05546113  0.56956200    -0.01400
C2879       C  0.13867519  0.06364475  0.58545722    -0.11600
C2880       C  0.12829505  0.08035434  0.58359126    -0.10000
H2881       H  0.13529084  0.08823904  0.53663247     0.07900
H2882       H  0.15268608  0.05862471  0.53967889     0.11600
H2883       H  0.13906118  0.05653266  0.59897663     0.11300
H2884       H  0.12104314  0.08611297  0.59574498     0.07900
C2885       C  0.95374445  0.84378440  0.40690515    -0.11200
C2886       C  0.93663929  0.83622496  0.40056924     0.05900
C2887       C  0.92272694  0.83123550  0.41381148    -0.10000
C2888       C  0.92564219  0.83441298  0.43303867    -0.11600
C2889       C  0.94252676  0.84259853  0.43927962    -0.01400
C2890       C  0.95667844  0.84689891  0.42606187    -0.29700
C2891       C  0.93322471  0.83387245  0.38016649     0.05900
H2892       H  0.90935645  0.82545933  0.40923899     0.07900
H2893       H  0.91448286  0.83104930  0.44291404     0.11300
H2894       H  0.96989690  0.85314426  0.43045992     0.11600
H2895       H  0.96480785  0.84741574  0.39701270     0.07900
C2896       C  0.93821665  0.84818563  0.36734149    -0.11200
C2897       C  0.93451198  0.84609104  0.34809829    -0.10500
C2898       C  0.92578995  0.82963573  0.34142558    -0.01400
C2899       C  0.92109274  0.81524669  0.35425810    -0.11600
C2900       C  0.92475092  0.81735487  0.37342050    -0.10000
H2901       H  0.94460640  0.86116073  0.37225829     0.07900
H2902       H  0.93816153  0.85743195  0.33852797     0.11600
H2903       H  0.91439130  0.80235908  0.34952945     0.11300
H2904       H  0.92100944  0.80602783  0.38297424     0.07900
C2905       C  0.96875090  0.91038109  0.56122310    -0.11200
C2906       C  0.95612663  0.90750221  0.57614491     0.05900
C2907       C  0.94233741  0.89331490  0.57457019    -0.10000
C2908       C  0.94103250  0.88244269  0.55809867    -0.11600
C2909       C  0.95367795  0.88548187  0.54314382    -0.01400
C2910       C  0.96758652  0.89949168  0.54497850    -0.10500
C2911       C  0.95806931  0.91897963  0.59344110     0.05900
H2912       H  0.93244039  0.89085131  0.58594572     0.07900
H2913       H  0.93010277  0.87183577  0.55699841     0.11300
H2914       H  0.97752873  0.90227134  0.53371383     0.11600
H2915       H  0.97973729  0.92094945  0.56220952     0.07900
C2916       C  0.95819196  0.91028621  0.61120886    -0.11200
C2917       C  0.96247164  0.92075140  0.62732139    -0.10500
C2918       C  0.96646535  0.94013269  0.62596755    -0.01400
C2919       C  0.96551720  0.94900791  0.60831009    -0.11600
C2920       C  0.96144798  0.93849664  0.59216768    -0.10000
H2921       H  0.95576772  0.89525716  0.61253970     0.07900
H2922       H  0.96291986  0.91361182  0.64082478     0.11600
H2923       H  0.96845589  0.96393924  0.60690549     0.11300
H2924       H  0.96125775  0.94555155  0.57861241     0.07900
C2925       C  0.81261559  0.12310855  0.44030981    -0.11200
C2926       C  0.81899143  0.13643591  0.45355088     0.05900
C2927       C  0.82898530  0.13023092  0.46942731    -0.10000
C2928       C  0.83322419  0.11118075  0.47164187    -0.11600
C2929       C  0.82758381  0.09793327  0.45800219    -0.01400
C2930       C  0.81689125  0.10399136  0.44251346    -0.10500
C2931       C  0.81633379  0.15683078  0.45015050     0.05900
H2932       H  0.83378924  0.14016704  0.47998481     0.07900
H2933       H  0.84134163  0.10691107  0.48385131     0.11300
H2934       H  0.81232375  0.09406935  0.43184272     0.11600
H2935       H  0.80499891  0.12755529  0.42784637     0.07900
C2936       C  0.83131357  0.16949120  0.45309357    -0.11200
C2937       C  0.82949034  0.18846148  0.44813282    -0.10500
C2938       C  0.81268999  0.19503975  0.44007294    -0.01400
C2939       C  0.79744853  0.18255548  0.43789342    -0.11600
C2940       C  0.79925230  0.16362748  0.44289762    -0.10000
H2941       H  0.84471657  0.16457239  0.45849315     0.07900
H2942       H  0.84144965  0.19778621  0.44991808     0.11600
H2943       H  0.78424106  0.18731342  0.43189194     0.11300
H2944       H  0.78740354  0.15422777  0.44079380     0.07900
C2945       C  0.89379161  0.97384987  0.48000174    -0.11200
C2946       C  0.88718949  0.95804459  0.47015461     0.05900
C2947       C  0.87066779  0.95956346  0.45932892    -0.10000
C2948       C  0.86116685  0.97685789  0.45803092    -0.11600
C2949       C  0.86786850  0.99267063  0.46790310    -0.01400
C2950       C  0.88417776  0.99092433  0.47899709    -0.10500
C2951       C  0.89766214  0.94009841  0.47151201     0.05900
H2952       H  0.86535384  0.94748797  0.45163454     0.07900
H2953       H  0.84863740  0.97787039  0.44937577     0.11300
H2954       H  0.88975848  0.00289478  0.48667310     0.11600
H2955       H  0.90636532  0.97293899  0.48861727     0.07900
C2956       C  0.91729609  0.93991536  0.46899458    -0.11200
C2957       C  0.92759800  0.92344399  0.47213007    -0.10500
C2958       C  0.91846563  0.90688986  0.47802334    -0.01400
C2959       C  0.89872573  0.90693187  0.47998484    -0.11600
C2960       C  0.88839516  0.92339484  0.47666013    -0.10000
H2961       H  0.92469703  0.95264380  0.46489187     0.07900
H2962       H  0.94276493  0.92381805  0.47043093     0.11600
H2963       H  0.89130042  0.89435282  0.48447022     0.11300
H2964       H  0.87327756  0.92328061  0.47881227     0.07900
C2965       C  0.14545940  0.09227833  0.31078147    -0.11200
C2966       C  0.13833735  0.08806097  0.32875687     0.05900
C2967       C  0.15069727  0.08782993  0.34425808    -0.10000
C2968       C  0.16974481  0.09225721  0.34187845    -0.11600
C2969       C  0.17668188  0.09709208  0.32398372    -0.01400
C2970       C  0.16443775  0.09679484  0.30842537    -0.10500
C2971       C  0.11796242  0.08456383  0.33143987     0.05900
H2972       H  0.14550810  0.08482154  0.35831093     0.07900
H2973       H  0.17887441  0.09256014  0.35411238     0.11300
H2974       H  0.16948532  0.10032978  0.29444044     0.11600
H2975       H  0.13629899  0.09224689  0.29856776     0.07900
C2976       C  0.10453279  0.09611534  0.32252400    -0.11200
C2977       C  0.08530669  0.09348218  0.32589846    -0.10500
C2978       C  0.07919848  0.07917738  0.33815381    -0.01400
C2979       C  0.09262434  0.06732142  0.34665035    -0.11600
C2980       C  0.11181013  0.07003098  0.34337605    -0.10000
H2981       H  0.10892684  0.10754393  0.31337970     0.07900
H2982       H  0.07526583  0.10282914  0.31918625     0.11600
H2983       H  0.08833755  0.05616070  0.35616950     0.11300
H2984       H  0.12185767  0.06079484  0.35023287     0.07900
C2985       C  0.90705987  0.05386444  0.40095162    -0.11200
C2986       C  0.92251824  0.06413070  0.40768449     0.05900
C2987       C  0.92216464  0.07110969  0.42624589    -0.10000
C2988       C  0.90667024  0.06747517  0.43801813    -0.11600
C2989       C  0.89121201  0.05710090  0.43123617    -0.01400
C2990       C  0.89153799  0.05051083  0.41252792    -0.10500
C2991       C  0.93935267  0.06643900  0.39559648     0.05900
H2992       H  0.93407005  0.07891983  0.43175287     0.07900
H2993       H  0.90677263  0.07274667  0.45235306     0.11300
H2994       H  0.87987467  0.04244892  0.40686845     0.11600
H2995       H  0.90704465  0.04836525  0.38669428     0.07900
C2996       C  0.94786493  0.05045325  0.38760974    -0.11200
C2997       C  0.96425735  0.05220751  0.37688072    -0.10500
C2998       C  0.97224149  0.07002370  0.37356559    -0.01400
C2999       C  0.96332087  0.08614357  0.38088748    -0.11600
C3000       C  0.94708700  0.08433728  0.39204075    -0.10000
H3001       H  0.94214958  0.03651612  0.39020535     0.07900
H3002       H  0.97095770  0.03956767  0.37149818     0.11600
H3003       H  0.96940229  0.09999883  0.37875198     0.11300
H3004       H  0.94063794  0.09684736  0.39799131     0.07900
C3005       C  0.04680641  0.13274968  0.41540210    -0.11200
C3006       C  0.04524470  0.12422621  0.43320217     0.05900
C3007       C  0.04044474  0.10501625  0.43433273    -0.10000
C3008       C  0.03688592  0.09459162  0.41801140    -0.11600
C3009       C  0.03776836  0.10324573  0.40023726    -0.01400
C3010       C  0.04292678  0.12238428  0.39905253    -0.10500
C3011       C  0.04741959  0.13543369  0.45068633     0.05900
H3012       H  0.03929049  0.09810513  0.44791551     0.07900
H3013       H  0.03297383  0.07987814  0.41933181     0.11300
H3014       H  0.04385143  0.12936132  0.38548849     0.11600
H3015       H  0.05040015  0.14755452  0.41419274     0.07900
C3016       C  0.06311081  0.14720577  0.45361590    -0.11200
C3017       C  0.06523905  0.15694790  0.47072611    -0.10500
C3018       C  0.05159151  0.15517090  0.48501585    -0.01400
C3019       C  0.03566069  0.14384961  0.48169356    -0.11600
C3020       C  0.03363811  0.13408469  0.46478916    -0.10000
H3021       H  0.07391717  0.14845902  0.44288927     0.07900
H3022       H  0.07764949  0.16557093  0.47289167     0.11600
H3023       H  0.02478226  0.14227876  0.49230532     0.11300
H3024       H  0.02125363  0.12538348  0.46273321     0.07900
C3025       C  0.91075120  0.09307714  0.81347468    -0.11200
C3026       C  0.89588887  0.08528723  0.82417684     0.05900
C3027       C  0.90030341  0.07454152  0.84022649    -0.10000
C3028       C  0.91894120  0.07183503  0.84557436    -0.11600
C3029       C  0.93367415  0.08013514  0.83529181    -0.01400
C3030       C  0.92948926  0.09070988  0.81912942    -0.10500
C3031       C  0.87585839  0.08934230  0.81957471     0.05900
H3032       H  0.88938151  0.06872201  0.84915809     0.07900
H3033       H  0.92177253  0.06368875  0.85819014     0.11300
H3034       H  0.94066479  0.09705796  0.81086568     0.11600
H3035       H  0.90795174  0.10110328  0.80079905     0.07900
C3036       C  0.87076118  0.10685567  0.81178505    -0.11200
C3037       C  0.85186337  0.11145494  0.80916871    -0.10500
C3038       C  0.83765488  0.09889124  0.81475385    -0.01400
C3039       C  0.84253861  0.08128013  0.82219758    -0.11600
C3040       C  0.86149307  0.07639053  0.82425815    -0.10000
H3041       H  0.88127150  0.11737903  0.80836897     0.07900
H3042       H  0.84832128  0.12520098  0.80349099     0.11600
H3043       H  0.83171639  0.07131262  0.82632506     0.11300
H3044       H  0.86483456  0.06255147  0.82976812     0.07900
C3045       C  0.99246274  0.01282481  0.79115173    -0.11200
C3046       C  0.99854018  0.02229216  0.77481949     0.05900
C3047       C  0.00492363  0.04093220  0.77620486    -0.10000
C3048       C  0.00441678  0.05030328  0.79343584    -0.11600
C3049       C  0.99732183  0.04128325  0.80962472    -0.01400
C3050       C  0.99177505  0.02229652  0.80845897    -0.10500
C3051       C  0.99706319  0.01330879  0.75612698     0.05900
H3052       H  0.00989772  0.04839484  0.76382301     0.07900
H3053       H  0.00891993  0.06489705  0.79388439     0.11300
H3054       H  0.98623788  0.01502481  0.82070583     0.11600
H3055       H  0.98742912  0.99842121  0.79033683     0.07900
C3056       C  0.00409853  0.99508620  0.75308390    -0.11200
C3057       C  0.00212706  0.98653500  0.73545708    -0.10500
C3058       C  0.99295832  0.99603461  0.72064887    -0.01400
C3059       C  0.98614455  0.01437400  0.72367230    -0.11600
C3060       C  0.98820282  0.02294022  0.74125625    -0.10000
H3061       H  0.01109031  0.98749071  0.76434436     0.07900
H3062       H  0.00752113  0.97237369  0.73351147     0.11600
H3063       H  0.97884796  0.02194154  0.71259098     0.11300
H3064       H  0.98247256  0.03694692  0.74339179     0.07900
C3065       C  0.19382561  0.12326330  0.93848031    -0.11200
C3066       C  0.18802313  0.13588920  0.95266320     0.05900
C3067       C  0.17899891  0.12866009  0.96876025    -0.10000
C3068       C  0.17581100  0.10926136  0.97059309    -0.11600
C3069       C  0.18155277  0.09667053  0.95635570    -0.01400
C3070       C  0.19064735  0.10388542  0.94031273    -0.10500
C3071       C  0.19122834  0.15650532  0.95041481     0.05900
H3072       H  0.17451609  0.13799133  0.97999428     0.07900
H3073       H  0.16872890  0.10413826  0.98312649     0.11300
H3074       H  0.19505969  0.09458763  0.92902153     0.11600
H3075       H  0.20051390  0.12841351  0.92574561     0.07900
C3076       C  0.20814667  0.16310538  0.94252402    -0.11200
C3077       C  0.21068306  0.18227209  0.93883028    -0.10500
C3078       C  0.19637945  0.19537039  0.94296029    -0.01400
C3079       C  0.17976332  0.18895041  0.95164552    -0.11600
C3080       C  0.17721051  0.16968286  0.95534516    -0.10000
H3081       H  0.21937414  0.15338307  0.93895652     0.07900
H3082       H  0.22373326  0.18676561  0.93228491     0.11600
H3083       H  0.16848378  0.19870295  0.95495313     0.11300
H3084       H  0.16397612  0.16502269  0.96137266     0.07900
C3085       C  0.05585858  0.04980989  0.90183559    -0.11200
C3086       C  0.07095421  0.06206542  0.89839746     0.05900
C3087       C  0.06927422  0.07596260  0.88435718    -0.10000
C3088       C  0.05240292  0.07795525  0.87434420    -0.11600
C3089       C  0.03714346  0.06590866  0.87813149    -0.01400
C3090       C  0.03916510  0.05165564  0.89176971    -0.10500
C3091       C  0.08833076  0.06014503  0.90958226     0.05900
H3092       H  0.08082727  0.08553652  0.88148959     0.07900
H3093       H  0.05119975  0.08904052  0.86389854     0.11300
H3094       H  0.02769195  0.04209083  0.89497080     0.11600
H3095       H  0.05698858  0.03877488  0.91235337     0.07900
C3096       C  0.08729742  0.05821092  0.92927988    -0.11200
C3097       C  0.10357609  0.05503474  0.93982820    -0.10500
C3098       C  0.12110757  0.05356221  0.93079872    -0.01400
C3099       C  0.12216187  0.05588973  0.91112192    -0.11600
C3100       C  0.10590653  0.05925688  0.90060852    -0.10000
H3101       H  0.07384532  0.05901745  0.93647814     0.07900
H3102       H  0.10239283  0.05334769  0.95496554     0.11600
H3103       H  0.13553761  0.05491037  0.90380859     0.11300
H3104       H  0.10697893  0.06058260  0.88542405     0.07900
C3105       C  0.06375867  0.85317159  0.90086857    -0.11200
C3106       C  0.07241766  0.83630116  0.89519750     0.05900
C3107       C  0.07901160  0.82370685  0.90911888    -0.10000
C3108       C  0.07706751  0.82806616  0.92829555    -0.11600
C3109       C  0.06817878  0.84486730  0.93372554    -0.01400
C3110       C  0.06150165  0.85728922  0.91985401    -0.10500
C3111       C  0.07531274  0.83263870  0.87481427     0.05900
H3112       H  0.08558968  0.81049129  0.90521873     0.07900
H3113       H  0.08219678  0.81824774  0.93881723     0.11300
H3114       H  0.05481886  0.87049019  0.92369503     0.11600
H3115       H  0.05907824  0.86351269  0.89065446     0.07900
C3116       C  0.06212903  0.83915734  0.86145826    -0.11200
C3117       C  0.06601071  0.83806885  0.84221406    -0.10500
C3118       C  0.08285155  0.82989972  0.83597256    -0.01400
C3119       C  0.09558167  0.82246439  0.84915999    -0.11600
C3120       C  0.09194565  0.82398574  0.86842265    -0.10000
H3121       H  0.04890954  0.84539081  0.86586465     0.07900
H3122       H  0.05584845  0.84355025  0.83221733     0.11600
H3123       H  0.10868721  0.81608420  0.84458313     0.11300
H3124       H  0.10251775  0.81905177  0.87825400     0.07900
C3125       C  0.13292014  0.96206259  0.94805256    -0.11200
C3126       C  0.13013963  0.95370568  0.96583360     0.05900
C3127       C  0.13829370  0.96212473  0.98178822    -0.10000
C3128       C  0.14814497  0.97908238  0.98018089    -0.11600
C3129       C  0.15039318  0.98778432  0.96254423    -0.01400
C3130       C  0.14317716  0.97889459  0.94639026    -0.10500
C3131       C  0.11799601  0.93683806  0.96814078     0.05900
H3132       H  0.13627859  0.95604879  0.99566478     0.07900
H3133       H  0.15353849  0.98572678  0.99283454     0.11300
H3134       H  0.14456415  0.98548689  0.93267352     0.11600
H3135       H  0.12686845  0.95575132  0.93553475     0.07900
C3136       C  0.09991829  0.93618562  0.96003262    -0.11200
C3137       C  0.08779890  0.92101619  0.96377670    -0.10500
C3138       C  0.09369291  0.90612716  0.97544692    -0.01400
C3139       C  0.11194965  0.90661160  0.98313562    -0.11600
C3140       C  0.12390724  0.92184424  0.97962655    -0.10000
H3141       H  0.09496771  0.94768583  0.95127935     0.07900
H3142       H  0.07385664  0.92092856  0.95756709     0.11600
H3143       H  0.11691435  0.89532699  0.99216090     0.11300
H3144       H  0.13778425  0.92197309  0.98598877     0.07900
C3145       C  0.11625969  0.97601251  0.17920255    -0.11200
C3146       C  0.12343430  0.95967096  0.18775995     0.05900
C3147       C  0.11093011  0.94516587  0.19294491    -0.10000
C3148       C  0.09161148  0.94708607  0.18989645    -0.11600
C3149       C  0.08442071  0.96349304  0.18150275    -0.01400
C3150       C  0.09692736  0.97790553  0.17608352    -0.10500
C3151       C  0.14383334  0.95776539  0.19162607     0.05900
H3152       H  0.11611615  0.93225007  0.19922049     0.07900
H3153       H  0.08233195  0.93562691  0.19394194     0.11300
H3154       H  0.09177185  0.99066823  0.16947758     0.11600
H3155       H  0.12555749  0.98746906  0.17520058     0.07900
C3156       C  0.15736312  0.96350191  0.17828372    -0.11200
C3157       C  0.17657121  0.96075122  0.18176686    -0.10500
C3158       C  0.18250734  0.95225103  0.19863536    -0.01400
C3159       C  0.16898163  0.94711300  0.21218058    -0.11600
C3160       C  0.14987885  0.94985014  0.20871262    -0.10000
H3161       H  0.15307173  0.96956293  0.16495153     0.07900
H3162       H  0.18671145  0.96478814  0.17105931     0.11600
H3163       H  0.17311816  0.94060849  0.22535664     0.11300
H3164       H  0.13979628  0.94567374  0.21942159     0.07900
C3165       C  0.01019482  0.02375226  0.23465380    -0.11200
C3166       C  0.01675372  0.01573839  0.25166071     0.05900
C3167       C  0.02512494  0.99772210  0.25091573    -0.10000
C3168       C  0.02665737  0.98796974  0.23386082    -0.11600
C3169       C  0.02039499  0.99614661  0.21697839    -0.01400
C3170       C  0.01226155  0.01417235  0.21746849    -0.10500
C3171       C  0.01541143  0.02619247  0.26999061     0.05900
H3172       H  0.03090563  0.99120067  0.26343640     0.07900
H3173       H  0.03325939  0.97418382  0.23378665     0.11300
H3174       H  0.00724072  0.02071072  0.20460674     0.11600
H3175       H  0.00334226  0.03738675  0.23455510     0.07900
C3176       C  0.01636029  0.04604403  0.27052540    -0.11200
C3177       C  0.01624648  0.05571981  0.28773612    -0.10500
C3178       C  0.01556757  0.04581927  0.30489240    -0.01400
C3179       C  0.01421364  0.02607280  0.30446505    -0.11600
C3180       C  0.01389012  0.01640176  0.28725462    -0.10000
H3181       H  0.01788098  0.05418404  0.25770375     0.07900
H3182       H  0.01750257  0.07094994  0.28761872     0.11600
H3183       H  0.01355747  0.01806892  0.31746795     0.11300
H3184       H  0.01256622  0.00119954  0.28756956     0.07900
C3185       C  0.04534838  0.93498249  0.08840349    -0.11200
C3186       C  0.04690600  0.91525725  0.08975822     0.05900
C3187       C  0.04576382  0.90662272  0.10749446    -0.10000
C3188       C  0.04257203  0.91750380  0.12358898    -0.11600
C3189       C  0.04069863  0.93723001  0.12223547    -0.01400
C3190       C  0.04237651  0.94589920  0.10452384    -0.10500
C3191       C  0.04870905  0.90373411  0.07253343     0.05900
H3192       H  0.04678558  0.89142866  0.10881657     0.07900
H3193       H  0.04140518  0.91043780  0.13708691     0.11300
H3194       H  0.04103056  0.96105300  0.10308021     0.11600
H3195       H  0.04631850  0.94192078  0.07481972     0.07900
C3196       C  0.03635339  0.90691175  0.05748709    -0.11200
C3197       C  0.03822751  0.89675301  0.04082877    -0.10500
C3198       C  0.05265310  0.88329730  0.03873545    -0.01400
C3199       C  0.06474250  0.87967877  0.05399187    -0.11600
C3200       C  0.06268440  0.88976166  0.07086903    -0.10000
H3201       H  0.02526646  0.91737093  0.05859877     0.07900
H3202       H  0.02860284  0.89983724  0.02938702     0.11600
H3203       H  0.07595385  0.86938141  0.05275146     0.11300
H3204       H  0.07232077  0.88707396  0.08239961     0.07900
C3205       C  0.80655015  0.88376159  0.09482216    -0.11200
C3206       C  0.81571083  0.88794678  0.07774498     0.05900
C3207       C  0.82087851  0.87299553  0.06570551    -0.10000
C3208       C  0.81766823  0.85430259  0.07100789    -0.11600
C3209       C  0.80876164  0.85026715  0.08817289    -0.01400
C3210       C  0.80293260  0.86511857  0.09987372    -0.10500
C3211       C  0.82088711  0.90769608  0.07311643     0.05900
H3212       H  0.82755802  0.87569877  0.05224257     0.07900
H3213       H  0.82209107  0.84301911  0.06169830     0.11300
H3214       H  0.79617358  0.86228661  0.11328818     0.11600
H3215       H  0.80272552  0.89481513  0.10463454     0.07900
C3216       C  0.80943961  0.92293850  0.07877632    -0.11200
C3217       C  0.81521872  0.94153297  0.07561418    -0.10500
C3218       C  0.83228673  0.94513717  0.06633908    -0.01400
C3219       C  0.84346038  0.92998356  0.06026141    -0.11600
C3220       C  0.83794425  0.91149425  0.06378792    -0.10000
H3221       H  0.79605300  0.92053011  0.08570294     0.07900
H3222       H  0.80634232  0.95305381  0.08029785     0.11600
H3223       H  0.85682928  0.93243433  0.05327910     0.11300
H3224       H  0.84738329  0.90022246  0.05967386     0.07900
C3225       C  0.95237447  0.95376649  0.13113197    -0.11200
C3226       C  0.94315533  0.97112164  0.12869422     0.05900
C3227       C  0.95026886  0.98728157  0.13762374    -0.10000
C3228       C  0.96678794  0.98631825  0.14819485    -0.11600
C3229       C  0.97620532  0.96907954  0.15043678    -0.01400
C3230       C  0.96870270  0.95270455  0.14217913    -0.10500
C3231       C  0.92648055  0.97288243  0.11642235     0.05900
H3232       H  0.94341313  0.00081988  0.13579005     0.07900
H3233       H  0.97249943  0.99913702  0.15423753     0.11300
H3234       H  0.97602417  0.93934656  0.14341874     0.11600
H3235       H  0.94706862  0.94116389  0.12432369     0.07900
C3236       C  0.92744261  0.96803978  0.09723289    -0.11200
C3237       C  0.91243905  0.97235701  0.08513237    -0.10500
C3238       C  0.89623914  0.98138086  0.09215718    -0.01400
C3239       C  0.89506745  0.98537257  0.11154812    -0.11600
C3240       C  0.91007552  0.98127552  0.12351446    -0.10000
H3241       H  0.94008918  0.96167292  0.09149427     0.07900
H3242       H  0.91365795  0.96899461  0.07028266     0.11600
H3243       H  0.88272140  0.99216164  0.11744696     0.11300
H3244       H  0.90907495  0.98506030  0.13828585     0.07900
C3245       C  0.94691732  0.19247398  0.15814767    -0.11200
C3246       C  0.94190011  0.20647732  0.14500428     0.05900
C3247       C  0.93434243  0.22354659  0.15154859    -0.10000
C3248       C  0.93107027  0.22629002  0.17072757    -0.11600
C3249       C  0.93524616  0.21200630  0.18383562    -0.01400
C3250       C  0.94358332  0.19520578  0.17742848    -0.10500
C3251       C  0.94379176  0.20314122  0.12446937     0.05900
H3252       H  0.93070412  0.23471236  0.14176821     0.07900
H3253       H  0.92475742  0.23945640  0.17522239     0.11300
H3254       H  0.94688864  0.18393722  0.18720591     0.11600
H3255       H  0.95272027  0.17914609  0.15344902     0.07900
C3256       C  0.96007626  0.19471214  0.11705367    -0.11200
C3257       C  0.96171271  0.19156892  0.09767721    -0.10500
C3258       C  0.94705206  0.19671392  0.08534026    -0.01400
C3259       C  0.93078018  0.20517122  0.09275609    -0.11600
C3260       C  0.92916955  0.20835592  0.11213091    -0.10000
H3261       H  0.97161146  0.19071480  0.12622355     0.07900
H3262       H  0.97444793  0.18501936  0.09237322     0.11600
H3263       H  0.91921332  0.20915138  0.08362094     0.11300
H3264       H  0.91633531  0.21463657  0.11752010     0.07900
C3265       C  0.97631948  0.15461351  0.95218497    -0.11200
C3266       C  0.96092615  0.14547077  0.94378067     0.05900
C3267       C  0.94280036  0.14808859  0.95137468    -0.10000
C3268       C  0.94026525  0.15911641  0.96757285    -0.11600
C3269       C  0.95588156  0.16733079  0.97652023    -0.01400
C3270       C  0.97383598  0.16533436  0.96844792    -0.10500
C3271       C  0.96417593  0.13262146  0.92767573     0.05900
H3272       H  0.93071106  0.14127963  0.94501572     0.07900
H3273       H  0.92633259  0.16025335  0.97373379     0.11300
H3274       H  0.98610075  0.17144322  0.97518707     0.11600
H3275       H  0.99045029  0.15272027  0.94669648     0.07900
C3276       C  0.97612276  0.13818119  0.91292249    -0.11200
C3277       C  0.98040638  0.12571704  0.89835864    -0.10500
C3278       C  0.97298288  0.10733587  0.89829740    -0.01400
C3279       C  0.96093399  0.10173177  0.91299085    -0.11600
C3280       C  0.95645777  0.11434511  0.92752478    -0.10000
H3281       H  0.98219693  0.15220078  0.91269169     0.07900
H3282       H  0.98974006  0.13043966  0.88721530     0.11600
H3283       H  0.95495466  0.08767550  0.91320347     0.11300
H3284       H  0.94738344  0.10967319  0.93889878     0.07900
C3285       C  0.92698303  0.10034445  0.04218709    -0.11200
C3286       C  0.90737607  0.10002898  0.04515513     0.05900
C3287       C  0.89742070  0.11711004  0.04566522    -0.10000
C3288       C  0.90681711  0.13417225  0.04309671    -0.11600
C3289       C  0.92639904  0.13454009  0.04008655    -0.01400
C3290       C  0.93644699  0.11748765  0.03976707    -0.10500
C3291       C  0.89721479  0.08196096  0.04747158     0.05900
H3292       H  0.88228759  0.11725044  0.04769393     0.07900
H3293       H  0.89869242  0.14710992  0.04339557     0.11300
H3294       H  0.95152764  0.11738974  0.03738584     0.11600
H3295       H  0.93499307  0.08733814  0.04187157     0.07900
C3296       C  0.90122020  0.06668820  0.03555051    -0.11200
C3297       C  0.89155977  0.04968153  0.03761005    -0.10500
C3298       C  0.87777499  0.04756069  0.05171574    -0.01400
C3299       C  0.87367409  0.06286455  0.06358536    -0.11600
C3300       C  0.88327002  0.07994634  0.06143385    -0.10000
H3301       H  0.91169554  0.06796701  0.02449957     0.07900
H3302       H  0.89502828  0.03812564  0.02823582     0.11600
H3303       H  0.86313784  0.06160900  0.07457755     0.11300
H3304       H  0.88000274  0.09150171  0.07087929     0.07900
C3305       C  0.67839806  0.87613308  0.95053688    -0.11200
C3306       C  0.69277214  0.88885115  0.94547792     0.05900
C3307       C  0.70946018  0.88178620  0.93752616    -0.10000
C3308       C  0.71153655  0.86251100  0.93418852    -0.11600
C3309       C  0.69696524  0.84984302  0.93871755    -0.01400
C3310       C  0.68047391  0.85679536  0.94717985    -0.10500
C3311       C  0.69017339  0.90946400  0.94792990     0.05900
H3312       H  0.72089576  0.89119486  0.93378205     0.07900
H3313       H  0.72446168  0.85758388  0.92770841     0.11300
H3314       H  0.66898942  0.84737497  0.95073637     0.11600
H3315       H  0.66530010  0.88119827  0.95653547     0.07900
C3316       C  0.69604903  0.92210622  0.93379544    -0.11200
C3317       C  0.69300710  0.94148560  0.93577078    -0.10500
C3318       C  0.68401814  0.94860178  0.95191428    -0.01400
C3319       C  0.67844333  0.93599517  0.96618790    -0.11600
C3320       C  0.68147797  0.91663534  0.96420958    -0.10000
H3321       H  0.70257618  0.91696795  0.92097496     0.07900
H3322       H  0.69736219  0.95084481  0.92450289     0.11600
H3323       H  0.67150632  0.94106019  0.97882324     0.11300
H3324       H  0.67703541  0.90726704  0.97543510     0.07900
C3325       C  0.73868794  0.01573646  0.00976888    -0.11200
C3326       C  0.75515589  0.01732098  0.99881628     0.05900
C3327       C  0.75350713  0.01841783  0.97910386    -0.10000
C3328       C  0.73586410  0.01710033  0.97048908    -0.11600
C3329       C  0.71951520  0.01458269  0.98140829    -0.01400
C3330       C  0.72104651  0.01435110  0.00114753    -0.10500
C3331       C  0.77397692  0.01641488  0.00788071     0.05900
H3332       H  0.76590696  0.01994920  0.97032083     0.07900
H3333       H  0.73510819  0.01744671  0.95523438     0.11300
H3334       H  0.70867323  0.01253877  0.00991823     0.11600
H3335       H  0.73948669  0.01469595  0.02498690     0.07900
C3336       C  0.77721595  0.02533966  0.02525880    -0.11200
C3337       C  0.79421950  0.02268613  0.03478431    -0.10500
C3338       C  0.80839177  0.01114791  0.02708571    -0.01400
C3339       C  0.80553393  0.00292260  0.00932436    -0.11600
C3340       C  0.78846022  0.00547976  0.99983862    -0.10000
H3341       H  0.76645845  0.03409011  0.03166065     0.07900
H3342       H  0.79609797  0.02933364  0.04841095     0.11600
H3343       H  0.81616068  0.99386426  0.00313489     0.11300
H3344       H  0.78630252  0.99820307  0.98658713     0.07900
C3345       C  0.58721243  0.21509643  0.91158105    -0.11200
C3346       C  0.57359520  0.20956616  0.89828884     0.05900
C3347       C  0.55716425  0.20049555  0.90448509    -0.10000
C3348       C  0.55464295  0.19645064  0.92354313    -0.11600
C3349       C  0.56854416  0.20134091  0.93678629    -0.01400
C3350       C  0.58471605  0.21099239  0.93069566    -0.10500
C3351       C  0.57683516  0.21257930  0.87793829     0.05900
H3352       H  0.54634257  0.19635932  0.89454110     0.07900
H3353       H  0.54197178  0.18908318  0.92783315     0.11300
H3354       H  0.59566958  0.21486787  0.94059607     0.11600
H3355       H  0.60008017  0.22199950  0.90710717     0.07900
C3356       C  0.58409534  0.22978013  0.87141993    -0.11200
C3357       C  0.58801420  0.23227879  0.85232206    -0.10500
C3358       C  0.58479226  0.21759740  0.83938514    -0.01400
C3359       C  0.57711097  0.20053172  0.84582234    -0.11600
C3360       C  0.57316650  0.19804208  0.86495779    -0.10000
H3361       H  0.58681478  0.24126620  0.88111997     0.07900
H3362       H  0.59386797  0.24562963  0.84774042     0.11600
H3363       H  0.57462481  0.18895176  0.83617360     0.11300
H3364       H  0.56775857  0.18455853  0.86969470     0.07900
C3365       C  0.60243370  0.10884190  0.95885561    -0.11200
C3366       C  0.62080557  0.10809403  0.96622320     0.05900
C3367       C  0.62726996  0.12293030  0.97757567    -0.10000
C3368       C  0.61549134  0.13807018  0.98183232    -0.11600
C3369       C  0.59691049  0.13860044  0.97499800    -0.01400
C3370       C  0.59051006  0.12393782  0.96332081    -0.10500
C3371       C  0.63265914  0.09117391  0.96350902     0.05900
H3372       H  0.64139936  0.12267696  0.98335374     0.07900
H3373       H  0.62083840  0.14919099  0.99083247     0.11300
H3374       H  0.57629045  0.12407626  0.95777765     0.11600
H3375       H  0.59710147  0.09743089  0.95021620     0.07900
C3376       C  0.64097824  0.08252795  0.97924801    -0.11200
C3377       C  0.65062521  0.06552560  0.97730532    -0.10500
C3378       C  0.65243861  0.05701840  0.95954322    -0.01400
C3379       C  0.64500611  0.06610476  0.94359700    -0.11600
C3380       C  0.63496970  0.08300034  0.94560120    -0.10000
H3381       H  0.63927526  0.08849144  0.99321280     0.07900
H3382       H  0.65621675  0.05871842  0.98979071     0.11600
H3383       H  0.64608630  0.05964525  0.92979343     0.11300
H3384       H  0.62873581  0.08951086  0.93327093     0.07900
C3385       C  0.61712226  0.06699039  0.18892103    -0.11200
C3386       C  0.62379531  0.08417163  0.19601318     0.05900
C3387       C  0.61096420  0.09866156  0.20030157    -0.10000
C3388       C  0.59176836  0.09621129  0.19692039    -0.11600
C3389       C  0.58519187  0.07925081  0.18917491    -0.01400
C3390       C  0.59797094  0.06453333  0.18555718    -0.10500
C3391       C  0.64414720  0.08716729  0.19852695     0.05900
H3392       H  0.61586007  0.11210519  0.20565981     0.07900
H3393       H  0.58221027  0.10780490  0.19968206     0.11300
H3394       H  0.59324052  0.05126244  0.17964826     0.11600
H3395       H  0.62675012  0.05554119  0.18580959     0.07900
C3396       C  0.65079727  0.09587567  0.21493441    -0.11200
C3397       C  0.66990033  0.09959575  0.21701812    -0.10500
C3398       C  0.68272389  0.09473090  0.20269509    -0.01400
C3399       C  0.67616481  0.08560645  0.18642950    -0.11600
C3400       C  0.65696747  0.08182792  0.18436612    -0.10000
H3401       H  0.64119159  0.09986330  0.22613002     0.07900
H3402       H  0.67456934  0.10656241  0.22978177     0.11600
H3403       H  0.68577168  0.08176567  0.17518906     0.11300
H3404       H  0.65206935  0.07521441  0.17150132     0.07900
C3405       C  0.54460892  0.13569175  0.06136307    -0.11200
C3406       C  0.55853836  0.13817854  0.07510218     0.05900
C3407       C  0.57287601  0.15151235  0.07218087    -0.10000
C3408       C  0.57359847  0.16177418  0.05529680    -0.11600
C3409       C  0.55982460  0.15895318  0.04132758    -0.01400
C3410       C  0.54517496  0.14603069  0.04469899    -0.10500
C3411       C  0.55762965  0.12682907  0.09245102     0.05900
H3412       H  0.58368014  0.15364242  0.08275226     0.07900
H3413       H  0.58506531  0.17160238  0.05302881     0.11300
H3414       H  0.53428423  0.14360375  0.03428263     0.11600
H3415       H  0.53326924  0.12568314  0.06355477     0.07900
C3416       C  0.55507087  0.13563338  0.10994029    -0.11200
C3417       C  0.55105240  0.12482685  0.12592024    -0.10500
C3418       C  0.54976549  0.10504827  0.12465270    -0.01400
C3419       C  0.55343464  0.09622898  0.10731160    -0.11600
C3420       C  0.55717722  0.10706433  0.09129198    -0.10000
H3421       H  0.55525092  0.15087944  0.11103026     0.07900
H3422       H  0.54844199  0.13199145  0.13915836     0.11600
H3423       H  0.55264327  0.08102939  0.10595679     0.11300
H3424       H  0.55915378  0.10007598  0.07784583     0.07900
C3425       C  0.36916782  0.94426098  0.80411792    -0.11200
C3426       C  0.37482242  0.95285157  0.82102504     0.05900
C3427       C  0.36125730  0.95665364  0.83497101    -0.10000
C3428       C  0.34244130  0.95174457  0.83220254    -0.11600
C3429       C  0.33681913  0.94287177  0.81545092    -0.01400
C3430       C  0.35031419  0.93932441  0.80134645    -0.10500
C3431       C  0.39486844  0.95726138  0.82459732     0.05900
H3432       H  0.36529168  0.96297175  0.84827804     0.07900
H3433       H  0.33238390  0.95450833  0.84336242     0.11300
H3434       H  0.34635127  0.93252279  0.78825693     0.11600
H3435       H  0.37932700  0.94132812  0.79309345     0.07900
C3436       C  0.40905289  0.94409730  0.82028073    -0.11200
C3437       C  0.42769544  0.94743516  0.82570914    -0.10500
C3438       C  0.43239920  0.96398595  0.83552286    -0.01400
C3439       C  0.41835194  0.97751275  0.83900135    -0.11600
C3440       C  0.39979173  0.97419195  0.83357717    -0.10000
H3441       H  0.40560302  0.93087858  0.81344187     0.07900
H3442       H  0.43827669  0.93682009  0.82277435     0.11600
H3443       H  0.42160274  0.99052595  0.84631834     0.11300
H3444       H  0.38918873  0.98472430  0.83673435     0.07900
C3445       C  0.56795938  0.97146712  0.88435855    -0.11200
C3446       C  0.56920807  0.98335313  0.90017190     0.05900
C3447       C  0.55323715  0.99348679  0.90595943    -0.10000
C3448       C  0.53632569  0.99182838  0.89608909    -0.11600
C3449       C  0.53499029  0.97981521  0.88037673    -0.01400
C3450       C  0.55093816  0.96959627  0.87462187    -0.10500
C3451       C  0.58723597  0.98562171  0.91034180     0.05900
H3452       H  0.55391549  0.00290155  0.91797341     0.07900
H3453       H  0.52420588  0.99976350  0.90093629     0.11300
H3454       H  0.55025278  0.96018759  0.86260742     0.11600
H3455       H  0.58009659  0.96345230  0.87969236     0.07900
C3456       C  0.58778082  0.98527926  0.93015581    -0.11200
C3457       C  0.60475024  0.98825900  0.93970826    -0.10500
C3458       C  0.62140827  0.99177143  0.92958442    -0.01400
C3459       C  0.62084830  0.99186608  0.90976354    -0.11600
C3460       C  0.60394475  0.98876768  0.90024511    -0.10000
H3461       H  0.57506814  0.98271416  0.93823089     0.07900
H3462       H  0.60478381  0.98805412  0.95498202     0.11600
H3463       H  0.63345521  0.99455102  0.90156554     0.11300
H3464       H  0.60383854  0.98929640  0.88497621     0.07900
C3465       C  0.31838751  0.12541246  0.08727856    -0.11200
C3466       C  0.32502989  0.13900974  0.07440378     0.05900
C3467       C  0.33585508  0.13304437  0.05894226    -0.10000
C3468       C  0.34011792  0.11396690  0.05649186    -0.11600
C3469       C  0.33375728  0.10039103  0.06950856    -0.01400
C3470       C  0.32275907  0.10629567  0.08488871    -0.10500
C3471       C  0.32098520  0.15936961  0.07729794     0.05900
H3472       H  0.34098659  0.14314266  0.04868292     0.07900
H3473       H  0.34866179  0.10989277  0.04450057     0.11300
H3474       H  0.31772908  0.09618630  0.09518671     0.11600
H3475       H  0.31018477  0.12961680  0.09946050     0.07900
C3476       C  0.30308264  0.16524675  0.08335382    -0.11200
C3477       C  0.29956117  0.18424301  0.08718599    -0.10500
C3478       C  0.31385570  0.19782134  0.08503674    -0.01400
C3479       C  0.33157669  0.19209276  0.07831866    -0.11600
C3480       C  0.33511596  0.17303668  0.07450476    -0.10000
H3481       H  0.29182443  0.15510759  0.08529266     0.07900
H3482       H  0.28571582  0.18824042  0.09224308     0.11600
H3483       H  0.34289884  0.20221415  0.07668291     0.11300
H3484       H  0.34910695  0.16890954  0.06999379     0.07900
C3485       C  0.25034317  0.03308652  0.98789218    -0.11200
C3486       C  0.25077598  0.02824138  0.00714288     0.05900
C3487       C  0.23359025  0.02421529  0.01631395    -0.10000
C3488       C  0.21645166  0.02593463  0.00673084    -0.11600
C3489       C  0.21618713  0.03115143  0.98765995    -0.01400
C3490       C  0.23328321  0.03427591  0.97823151    -0.10500
C3491       C  0.26891286  0.02869108  0.01775751     0.05900
H3492       H  0.23329548  0.01994596  0.03096252     0.07900
H3493       H  0.20341307  0.02324623  0.01422929     0.11300
H3494       H  0.23343017  0.03846910  0.96353736     0.11600
H3495       H  0.26309140  0.03673613  0.98034634     0.07900
C3496       C  0.28619080  0.02499174  0.00862622    -0.11200
C3497       C  0.30329648  0.02768260  0.01800971    -0.10500
C3498       C  0.30347900  0.03350298  0.03688720    -0.01400
C3499       C  0.28633106  0.03625770  0.04635504    -0.11600
C3500       C  0.26925408  0.03412251  0.03685256    -0.10000
H3501       H  0.28658253  0.02024612  0.99413141     0.07900
H3502       H  0.31638270  0.02525452  0.01050670     0.11600
H3503       H  0.28613503  0.04089516  0.06091201     0.11300
H3504       H  0.25640422  0.03750319  0.04435278     0.07900
C3505       C  0.46350297  0.05861580  0.11916772    -0.11200
C3506       C  0.44869826  0.07103885  0.12321168     0.05900
C3507       C  0.45060522  0.08405244  0.13802675    -0.10000
C3508       C  0.46729171  0.08474933  0.14851944    -0.11600
C3509       C  0.48206431  0.07217019  0.14452154    -0.01400
C3510       C  0.47996410  0.05909273  0.12977491    -0.10500
C3511       C  0.43104988  0.06955321  0.11242199     0.05900
H3512       H  0.43925662  0.09372811  0.14134535     0.07900
H3513       H  0.46862247  0.09503206  0.15973199     0.11300
H3514       H  0.49115288  0.04930221  0.12625491     0.11600
H3515       H  0.46218998  0.04829675  0.10797456     0.07900
C3516       C  0.43147543  0.06899949  0.09262757    -0.11200
C3517       C  0.41506614  0.06525202  0.08245148    -0.10500
C3518       C  0.39807055  0.06172898  0.09196542    -0.01400
C3519       C  0.39757476  0.06289207  0.11175623    -0.11600
C3520       C  0.41392181  0.06688859  0.12189761    -0.10000
H3521       H  0.44460293  0.07108319  0.08508750     0.07900
H3522       H  0.41580407  0.06451755  0.06721281     0.11600
H3523       H  0.38461358  0.06036412  0.11944016     0.11300
H3524       H  0.41336459  0.06709264  0.13716476     0.07900
C3525       C  0.45227417  0.83195632  0.16061832    -0.11200
C3526       C  0.43937491  0.82745318  0.14620989     0.05900
C3527       C  0.42165279  0.82010751  0.15118047    -0.10000
C3528       C  0.41670341  0.81800989  0.17008366    -0.11600
C3529       C  0.42919358  0.82360556  0.18434840    -0.01400
C3530       C  0.44710524  0.83033167  0.17953482    -0.10500
C3531       C  0.44368185  0.83203750  0.12625936     0.05900
H3532       H  0.41124826  0.81676955  0.14053851     0.07900
H3533       H  0.40276137  0.81281048  0.17354892     0.11300
H3534       H  0.45704128  0.83440155  0.19038857     0.11600
H3535       H  0.46624107  0.83713651  0.15729813     0.07900
C3536       C  0.45404774  0.84837543  0.12197502    -0.11200
C3537       C  0.45696066  0.85374542  0.10335126    -0.10500
C3538       C  0.44925675  0.84315434  0.08855236    -0.01400
C3539       C  0.43906231  0.82670307  0.09263352    -0.11600
C3540       C  0.43645532  0.82106870  0.11135703    -0.10000
H3541       H  0.45939124  0.85746853  0.13300215     0.07900
H3542       H  0.46475395  0.86659348  0.10055899     0.11600
H3543       H  0.43316495  0.81822595  0.08138368     0.11300
H3544       H  0.42866168  0.80823600  0.11414421     0.07900
C3545       C  0.45043946  0.89381738  0.95372439    -0.11200
C3546       C  0.46405022  0.90807743  0.95195235     0.05900
C3547       C  0.47687428  0.91119603  0.96661339    -0.10000
C3548       C  0.47602710  0.90033826  0.98295491    -0.11600
C3549       C  0.46212265  0.88635600  0.98506030    -0.01400
C3550       C  0.44935155  0.88312671  0.97027823    -0.10500
C3551       C  0.46530318  0.91953728  0.93471418     0.05900
H3552       H  0.48760729  0.92200157  0.96535442     0.07900
H3553       H  0.48600909  0.90322798  0.99413677     0.11300
H3554       H  0.43845254  0.87250805  0.97158987     0.11600
H3555       H  0.44047326  0.89123165  0.94245258     0.07900
C3556       C  0.46849870  0.91080213  0.91729684    -0.11200
C3557       C  0.47151876  0.92170275  0.90119592    -0.10500
C3558       C  0.47110901  0.94151175  0.90223210    -0.01400
C3559       C  0.46723681  0.95022342  0.91959815    -0.11600
C3560       C  0.46452436  0.93929599  0.93577198    -0.10000
H3561       H  0.46928985  0.89556866  0.91629850     0.07900
H3562       H  0.47443883  0.91461867  0.88797928     0.11600
H3563       H  0.46685655  0.96545406  0.92078522     0.11300
H3564       H  0.46204637  0.94623006  0.94916363     0.07900
C3565       C  0.39569275  0.92461420  0.05426810    -0.11200
C3566       C  0.40461452  0.94230034  0.05453168     0.05900
C3567       C  0.42431082  0.94312273  0.05251289    -0.10000
C3568       C  0.43485176  0.92666313  0.04990243    -0.11600
C3569       C  0.42590416  0.90901572  0.04897064    -0.01400
C3570       C  0.40622295  0.90813066  0.05134196    -0.10500
C3571       C  0.39348762  0.95999741  0.05587018     0.05900
H3572       H  0.43154756  0.95657759  0.05280649     0.07900
H3573       H  0.44996819  0.92781293  0.04809224     0.11300
H3574       H  0.39894525  0.89471240  0.05073309     0.11600
H3575       H  0.38052461  0.92361460  0.05568959     0.07900
C3576       C  0.39699098  0.97469225  0.04308999    -0.11200
C3577       C  0.38715649  0.99167603  0.04440078    -0.10500
C3578       C  0.37366241  0.99453934  0.05866905    -0.01400
C3579       C  0.36988315  0.97973288  0.07133786    -0.11600
C3580       C  0.37961665  0.96252628  0.06984365    -0.10000
H3581       H  0.40740175  0.97302649  0.03202681     0.07900
H3582       H  0.39044274  0.00274258  0.03438560     0.11600
H3583       H  0.35959032  0.98152079  0.08248184     0.11300
H3584       H  0.37667512  0.95138158  0.07987792     0.07900
C3585       C  0.67477874  0.13234042  0.57095819    -0.11200
C3586       C  0.69099176  0.13720254  0.58122694     0.05900
C3587       C  0.70203652  0.12265879  0.58909559    -0.10000
C3588       C  0.69684737  0.10375552  0.58688311    -0.11600
C3589       C  0.68076090  0.09905288  0.57643843    -0.01400
C3590       C  0.66983876  0.11349840  0.56844360    -0.10500
C3591       C  0.69597489  0.15736774  0.58409885     0.05900
H3592       H  0.71478746  0.12583296  0.59683512     0.07900
H3593       H  0.70553210  0.09283122  0.59309628     0.11300
H3594       H  0.65720370  0.11024701  0.56051567     0.11600
H3595       H  0.66563581  0.14308377  0.56513065     0.07900
C3596       C  0.69198512  0.17098536  0.57014897    -0.11200
C3597       C  0.69564765  0.19009150  0.57338988    -0.10500
C3598       C  0.70388523  0.19581577  0.59037776    -0.01400
C3599       C  0.70832528  0.18227252  0.60410904    -0.11600
C3600       C  0.70420904  0.16329067  0.60111467    -0.10000
H3601       H  0.68601748  0.16691807  0.55671047     0.07900
H3602       H  0.69221302  0.20035512  0.56260219     0.11600
H3603       H  0.71442713  0.18646777  0.61747054     0.11300
H3604       H  0.70706063  0.15336569  0.61236161     0.07900
C3605       C  0.72860752  0.03737018  0.51052364    -0.11200
C3606       C  0.74469974  0.03084644  0.52011703     0.05900
C3607       C  0.74298486  0.02520551  0.53900433    -0.10000
C3608       C  0.72578331  0.02684333  0.54838214    -0.11600
C3609       C  0.70990155  0.03421983  0.53910132    -0.01400
C3610       C  0.71134925  0.03906956  0.51994917    -0.10500
C3611       C  0.76342635  0.03090588  0.51082621     0.05900
H3612       H  0.75505654  0.01979834  0.54662773     0.07900
H3613       H  0.72508248  0.02280101  0.56309901     0.11300
H3614       H  0.69933446  0.04474585  0.51243327     0.11600
H3615       H  0.72954651  0.04189919  0.49596380     0.07900
C3616       C  0.76539445  0.02495556  0.49206259    -0.11200
C3617       C  0.78283772  0.02614622  0.48301179    -0.10500
C3618       C  0.79868765  0.03336677  0.49250933    -0.01400
C3619       C  0.79685049  0.03884419  0.51143631    -0.11600
C3620       C  0.77938253  0.03762425  0.52050658    -0.10000
H3621       H  0.75340208  0.01951583  0.48434219     0.07900
H3622       H  0.78380322  0.02177280  0.46840699     0.11600
H3623       H  0.80875278  0.04461699  0.51904922     0.11300
H3624       H  0.77821713  0.04254234  0.53492082     0.07900
C3625       C  0.40081980  0.09543923  0.70063872    -0.11200
C3626       C  0.38818791  0.08202707  0.69329909     0.05900
C3627       C  0.39530452  0.06666522  0.68304882    -0.10000
C3628       C  0.41459303  0.06506873  0.67966764    -0.11600
C3629       C  0.42715511  0.07880403  0.68647757    -0.01400
C3630       C  0.42014095  0.09382901  0.69727291    -0.10500
C3631       C  0.36761998  0.08455313  0.69563065     0.05900
H3632       H  0.38593333  0.05595556  0.67750952     0.07900
H3633       H  0.41961964  0.05323019  0.67142141     0.11300
H3634       H  0.42951323  0.10458927  0.70271136     0.11600
H3635       H  0.39571351  0.10753977  0.70843698     0.07900
C3636       C  0.36025209  0.09126678  0.71272529    -0.11200
C3637       C  0.34105954  0.09503608  0.71447074    -0.10500
C3638       C  0.32881822  0.09210189  0.69917747    -0.01400
C3639       C  0.33603781  0.08479091  0.68226522    -0.11600
C3640       C  0.35529188  0.08108241  0.68049192    -0.10000
H3641       H  0.36936333  0.09375100  0.72471940     0.07900
H3642       H  0.33585354  0.10049965  0.72775448     0.11600
H3643       H  0.32690986  0.08241952  0.67026032     0.11300
H3644       H  0.36061563  0.07610127  0.66707005     0.07900
C3645       C  0.49993670  0.04841746  0.75343943    -0.11200
C3646       C  0.49536466  0.02923112  0.75524102     0.05900
C3647       C  0.48954601  0.01918955  0.73915203    -0.10000
C3648       C  0.48787910  0.02830135  0.72173130    -0.11600
C3649       C  0.49198722  0.04762023  0.72008922    -0.01400
C3650       C  0.49826021  0.05750989  0.73607040    -0.10500
C3651       C  0.49598139  0.01994602  0.77397807     0.05900
H3652       H  0.48572172  0.00443153  0.74015080     0.07900
H3653       H  0.48294356  0.02033700  0.70967252     0.11300
H3654       H  0.50161159  0.07239404  0.73524065     0.11600
H3655       H  0.50473598  0.05644353  0.76551064     0.07900
C3656       C  0.50270692  0.00140591  0.77584810    -0.11200
C3657       C  0.50227823  0.99235321  0.79334028    -0.10500
C3658       C  0.49509258  0.00164943  0.80932017    -0.01400
C3659       C  0.48888031  0.02037218  0.80757752    -0.11600
C3660       C  0.48929933  0.02942003  0.79008025    -0.10000
H3661       H  0.50817564  0.99385059  0.76374814     0.07900
H3662       H  0.50715333  0.97789954  0.79424201     0.11600
H3663       H  0.48310491  0.02783041  0.81959748     0.11300
H3664       H  0.48379180  0.04363136  0.78903745     0.07900
C3665       C  0.60192593  0.05493324  0.63127782    -0.11200
C3666       C  0.58750385  0.06681120  0.62483503     0.05900
C3667       C  0.58888630  0.07490418  0.60679676    -0.10000
C3668       C  0.60421671  0.07062905  0.59511730    -0.11600
C3669       C  0.61849178  0.05848006  0.60149293    -0.01400
C3670       C  0.61734437  0.05092640  0.61978031    -0.10500
C3671       C  0.57024120  0.06915977  0.63618963     0.05900
H3672       H  0.57778009  0.08395998  0.60151142     0.07900
H3673       H  0.60490410  0.07676795  0.58114293     0.11300
H3674       H  0.62818762  0.04155545  0.62506510     0.11600
H3675       H  0.60110715  0.04854937  0.64514163     0.07900
C3676       C  0.56074372  0.05307506  0.64269780    -0.11200
C3677       C  0.54346716  0.05479054  0.65183884    -0.10500
C3678       C  0.53550169  0.07264127  0.65493242    -0.01400
C3679       C  0.54540801  0.08884860  0.64930068    -0.11600
C3680       C  0.56261387  0.08710276  0.63975816    -0.10000
H3681       H  0.56631816  0.03910301  0.63998195     0.07900
H3682       H  0.53606499  0.04209946  0.65605806     0.11600
H3683       H  0.53941160  0.10274432  0.65141770     0.11300
H3684       H  0.56980795  0.09967516  0.63488950     0.07900
C3685       C  0.32399258  0.91738650  0.47089257    -0.11200
C3686       C  0.31853789  0.91034051  0.45325276     0.05900
C3687       C  0.31556897  0.92299913  0.43825880    -0.10000
C3688       C  0.31882381  0.94229059  0.44065618    -0.11600
C3689       C  0.32514184  0.94919416  0.45807577    -0.01400
C3690       C  0.32724478  0.93663216  0.47328753    -0.10500
C3691       C  0.31678651  0.88978858  0.45020694     0.05900
H3692       H  0.31149503  0.91788111  0.42445825     0.07900
H3693       H  0.31722406  0.95164567  0.42868382     0.11300
H3694       H  0.33196723  0.94160306  0.48693556     0.11600
H3695       H  0.32605787  0.90795686  0.48273632     0.07900
C3696       C  0.33065277  0.87732236  0.45699443    -0.11200
C3697       C  0.32974321  0.85806976  0.45276422    -0.10500
C3698       C  0.31488462  0.85101087  0.44178455    -0.01400
C3699       C  0.30071619  0.86342778  0.43558835    -0.11600
C3700       C  0.30168949  0.88260662  0.43970727    -0.10000
H3701       H  0.34253415  0.88256668  0.46501707     0.07900
H3702       H  0.34082678  0.84881493  0.45772788     0.11600
H3703       H  0.28901878  0.85840677  0.42716359     0.11300
H3704       H  0.29071080  0.89187601  0.43453278     0.07900
C3705       C  0.26500259  0.01657616  0.49377625    -0.11200
C3706       C  0.26532550  0.02059716  0.51321825     0.05900
C3707       C  0.28296456  0.02322959  0.52201348    -0.10000
C3708       C  0.29973864  0.02078776  0.51188485    -0.11600
C3709       C  0.29920899  0.01627804  0.49264164    -0.01400
C3710       C  0.28170906  0.01470217  0.48360078    -0.10500
C3711       C  0.24744793  0.02044062  0.52436031     0.05900
H3712       H  0.28389598  0.02685465  0.53680344     0.07900
H3713       H  0.31310085  0.02226746  0.51911119     0.11300
H3714       H  0.28090647  0.01106461  0.46878139     0.11600
H3715       H  0.25190072  0.01397271  0.48644374     0.07900
C3716       C  0.23005990  0.02491026  0.51582144    -0.11200
C3717       C  0.21309366  0.02198413  0.52541544    -0.10500
C3718       C  0.21315829  0.01519194  0.54397556    -0.01400
C3719       C  0.23042585  0.01191095  0.55299934    -0.11600
C3720       C  0.24736656  0.01425148  0.54324416    -0.10000
H3721       H  0.22944808  0.03034309  0.50157416     0.07900
H3722       H  0.19991343  0.02493355  0.51829791     0.11600
H3723       H  0.23080499  0.00662503  0.56733489     0.11300
H3724       H  0.26027861  0.01032919  0.55032739     0.07900
C3725       C  0.44268307  0.21701391  0.40946091    -0.11200
C3726       C  0.44660214  0.20342512  0.39548743     0.05900
C3727       C  0.45412688  0.18592182  0.40096253    -0.10000
C3728       C  0.45737711  0.18200369  0.41991585    -0.11600
C3729       C  0.45274304  0.19529715  0.43380700    -0.01400
C3730       C  0.44546222  0.21286156  0.42850457    -0.10500
C3731       C  0.44184246  0.20700203  0.37544453     0.05900
H3732       H  0.45694582  0.17496626  0.39070991     0.07900
H3733       H  0.46289983  0.16828241  0.42378112     0.11300
H3734       H  0.44205187  0.22337165  0.43906045     0.11600
H3735       H  0.43732165  0.23081355  0.40572360     0.07900
C3736       C  0.42578316  0.21764801  0.37083867    -0.11200
C3737       C  0.42065101  0.22029871  0.35209609    -0.10500
C3738       C  0.43120757  0.21203159  0.33756124    -0.01400
C3739       C  0.44725085  0.20139471  0.34198985    -0.11600
C3740       C  0.45266647  0.19908463  0.36077658    -0.10000
H3741       H  0.41682137  0.22354034  0.38170308     0.07900
H3742       H  0.40809339  0.22842324  0.34899358     0.11600
H3743       H  0.45568164  0.19504633  0.33093791     0.11300
H3744       H  0.46531712  0.19109704  0.36377664     0.07900
C3745       C  0.46624905  0.13568066  0.60916807    -0.11200
C3746       C  0.46625862  0.12676509  0.59151011     0.05900
C3747       C  0.46795982  0.10701874  0.59065816    -0.10000
C3748       C  0.47009441  0.09641289  0.60713415    -0.11600
C3749       C  0.47075884  0.10538017  0.62476700    -0.01400
C3750       C  0.46858714  0.12509897  0.62564179    -0.10500
C3751       C  0.46555272  0.13802598  0.57393738     0.05900
H3752       H  0.46781786  0.09980916  0.57718990     0.07900
H3753       H  0.47168809  0.08125573  0.60602824     0.11300
H3754       H  0.46898059  0.13240045  0.63905297     0.11600
H3755       H  0.46507835  0.15088545  0.61017450     0.07900
C3756       C  0.45222147  0.15251079  0.57149382    -0.11200
C3757       C  0.45143164  0.16261407  0.55450471    -0.10500
C3758       C  0.46419368  0.15858762  0.53987817    -0.01400
C3759       C  0.47783235  0.14446146  0.54264401    -0.11600
C3760       C  0.47843114  0.13424672  0.55941651    -0.10000
H3761       H  0.44213792  0.15566507  0.58252875     0.07900
H3762       H  0.44072778  0.17336074  0.55271965     0.11600
H3763       H  0.48781507  0.14092852  0.53163062     0.11300
H3764       H  0.48902186  0.12335748  0.56106115     0.07900
C3765       C  0.39757184  0.11976878  0.46957811    -0.11200
C3766       C  0.40572581  0.10175987  0.46891891     0.05900
C3767       C  0.42539208  0.09999049  0.47074394    -0.10000
C3768       C  0.43662600  0.11588766  0.47381196    -0.11600
C3769       C  0.42836045  0.13381243  0.47528198    -0.01400
C3770       C  0.40877129  0.13563576  0.47282016    -0.10500
C3771       C  0.39367133  0.08475858  0.46782899     0.05900
H3772       H  0.43203566  0.08624404  0.47008163     0.07900
H3773       H  0.45168534  0.11409004  0.47554227     0.11300
H3774       H  0.40203263  0.14932073  0.47371302     0.11600
H3775       H  0.38245484  0.12149656  0.46834210     0.07900
C3776       C  0.39706996  0.06967259  0.48013791    -0.11200
C3777       C  0.38576975  0.05365456  0.47962323    -0.10500
C3778       C  0.37084064  0.05221218  0.46667029    -0.01400
C3779       C  0.36725568  0.06735262  0.45439781    -0.11600
C3780       C  0.37852199  0.08359605  0.45507674    -0.10000
H3781       H  0.40840528  0.07033972  0.49034303     0.07900
H3782       H  0.38898321  0.04222522  0.48924379     0.11600
H3783       H  0.35590324  0.06657103  0.44422883     0.11300
H3784       H  0.37562588  0.09509852  0.44544588     0.07900
C3785       C  0.60306050  0.94643728  0.32373087    -0.11200
C3786       C  0.61608104  0.96089056  0.32764050     0.05900
C3787       C  0.60954810  0.97811532  0.33481896    -0.10000
C3788       C  0.59045293  0.98065415  0.33860489    -0.11600
C3789       C  0.57750594  0.96601635  0.33528167    -0.01400
C3790       C  0.58390553  0.94899178  0.32749626    -0.10500
C3791       C  0.63647843  0.95775376  0.32483006     0.05900
H3792       H  0.61923968  0.98957332  0.33765195     0.07900
H3793       H  0.58588254  0.99399790  0.34448485     0.11300
H3794       H  0.57423112  0.93746157  0.32490288     0.11600
H3795       H  0.60776990  0.93293280  0.31835564     0.07900
C3796       C  0.64959127  0.96367368  0.33848812    -0.11200
C3797       C  0.66873066  0.95944204  0.33643345    -0.10500
C3798       C  0.67500362  0.94923509  0.32069125    -0.01400
C3799       C  0.66194816  0.94396422  0.30673255    -0.11600
C3800       C  0.64290035  0.94816565  0.30878932    -0.10000
H3801       H  0.64495889  0.97097876  0.35107915     0.07900
H3802       H  0.67848585  0.96362265  0.34740317     0.11600
H3803       H  0.66637490  0.93619445  0.29434365     0.11300
H3804       H  0.63314870  0.94374500  0.29790664     0.07900
C3805       C  0.51789245  0.02886032  0.28673369    -0.11200
C3806       C  0.51273269  0.01891451  0.27036184     0.05900
C3807       C  0.50733746  0.99991574  0.27202709    -0.10000
C3808       C  0.50767563  0.99089173  0.28954836    -0.11600
C3809       C  0.51343823  0.00065903  0.30580645    -0.01400
C3810       C  0.51823922  0.01982781  0.30426945    -0.10500
C3811       C  0.51375184  0.02811233  0.25155140     0.05900
H3812       H  0.50302890  0.99195813  0.25972721     0.07900
H3813       H  0.50389591  0.97610472  0.29026282     0.11300
H3814       H  0.52287147  0.02769686  0.31651088     0.11600
H3815       H  0.52233933  0.04345159  0.28589508     0.07900
C3816       C  0.50810418  0.04696545  0.24922482    -0.11200
C3817       C  0.51022964  0.05598121  0.23182756    -0.10500
C3818       C  0.51803627  0.04634459  0.21634797    -0.01400
C3819       C  0.52317337  0.02732930  0.21849031    -0.11600
C3820       C  0.52107783  0.01831389  0.23591783    -0.10000
H3821       H  0.50217002  0.05480672  0.26091628     0.07900
H3822       H  0.50611439  0.07064696  0.23061807     0.11600
H3823       H  0.52939242  0.01959026  0.20687628     0.11300
H3824       H  0.52580145  0.00385354  0.23731621     0.07900
C3825       C  0.45428244  0.99133138  0.40164360    -0.11200
C3826       C  0.43925390  0.97917583  0.39760193     0.05900
C3827       C  0.44087942  0.96638345  0.38254934    -0.10000
C3828       C  0.45766720  0.96530398  0.37214875    -0.11600
C3829       C  0.47284249  0.97730156  0.37646865    -0.01400
C3830       C  0.47082329  0.99049478  0.39112813    -0.10500
C3831       C  0.42202832  0.98014664  0.40924670     0.05900
H3832       H  0.42935728  0.95692940  0.37917704     0.07900
H3833       H  0.45886229  0.95501538  0.36093924     0.11300
H3834       H  0.48225337  0.99992807  0.39485453     0.11600
H3835       H  0.45320668  0.00149845  0.41298793     0.07900
C3836       C  0.42337193  0.97989315  0.42901488    -0.11200
C3837       C  0.40740868  0.98282596  0.44017359    -0.10500
C3838       C  0.38987995  0.98632568  0.43171943    -0.01400
C3839       C  0.38845106  0.98595766  0.41192488    -0.11600
C3840       C  0.40438049  0.98276758  0.40077825    -0.10000
H3841       H  0.43688714  0.97778326  0.43581132     0.07900
H3842       H  0.40890900  0.98302796  0.45536553     0.11600
H3843       H  0.37507780  0.98855246  0.40502262     0.11300
H3844       H  0.40307518  0.98313155  0.38556741     0.07900
C3845       C  0.58208275  0.83005433  0.61194696    -0.11200
C3846       C  0.56825553  0.83510583  0.62528270     0.05900
C3847       C  0.55206040  0.84464379  0.61913608    -0.10000
C3848       C  0.55002272  0.84964450  0.60024632    -0.11600
C3849       C  0.56410832  0.84519537  0.58700657    -0.01400
C3850       C  0.58002436  0.83505648  0.59295803    -0.10500
C3851       C  0.57115118  0.83142333  0.64566667     0.05900
H3852       H  0.54101583  0.84842201  0.62898785     0.07900
H3853       H  0.53749222  0.85732041  0.59608939     0.11300
H3854       H  0.59107814  0.83142707  0.58306179     0.11600
H3855       H  0.59481523  0.82284303  0.61629869     0.07900
C3856       C  0.57945024  0.81452472  0.65181442    -0.11200
C3857       C  0.58354217  0.81180807  0.67088248    -0.10500
C3858       C  0.57940558  0.82593300  0.68418394    -0.01400
C3859       C  0.57039322  0.84248957  0.67817025    -0.11600
C3860       C  0.56634932  0.84522796  0.65909850    -0.10000
H3861       H  0.58300329  0.80351013  0.64184538     0.07900
H3862       H  0.59039915  0.79882981  0.67513015     0.11600
H3863       H  0.56711094  0.85363764  0.68808602     0.11300
H3864       H  0.56013370  0.85850013  0.65478654     0.07900
C3865       C  0.56345254  0.89492332  0.45074542    -0.11200
C3866       C  0.55017736  0.90959802  0.44922869     0.05900
C3867       C  0.53828423  0.91344614  0.46453135    -0.10000
C3868       C  0.53969742  0.90307568  0.48110620    -0.11600
C3869       C  0.55314797  0.88862422  0.48291497    -0.01400
C3870       C  0.56503573  0.88457974  0.46756204    -0.10500
C3871       C  0.54814633  0.92085186  0.43177137     0.05900
H3872       H  0.52771145  0.92443801  0.46361317     0.07900
H3873       H  0.53032429  0.90661291  0.49264283     0.11300
H3874       H  0.57558003  0.87358179  0.46860439     0.11600
H3875       H  0.57277050  0.89170896  0.43907136     0.07900
C3876       C  0.54623459  0.94056401  0.43286375    -0.11200
C3877       C  0.54194975  0.95112244  0.41681271    -0.10500
C3878       C  0.53931257  0.94214889  0.39938159    -0.01400
C3879       C  0.54186532  0.92250023  0.39814187    -0.11600
C3880       C  0.54637564  0.91194958  0.41419241    -0.10000
H3881       H  0.54770616  0.94776400  0.44625817     0.07900
H3882       H  0.54018250  0.96624158  0.41815500     0.11600
H3883       H  0.54011301  0.91524975  0.38481230     0.11300
H3884       H  0.54768349  0.89676874  0.41302461     0.07900
C3885       C  0.59533636  0.93971096  0.56319686    -0.11200
C3886       C  0.61281066  0.94187342  0.55412732     0.05900
C3887       C  0.61905822  0.92791633  0.54158741    -0.10000
C3888       C  0.60801757  0.91200858  0.53817993    -0.11600
C3889       C  0.59038237  0.90995386  0.54699658    -0.01400
C3890       C  0.58411279  0.92393395  0.55952936    -0.10500
C3891       C  0.62409941  0.95907843  0.55708380     0.05900
H3892       H  0.63249621  0.92933324  0.53445614     0.07900
H3893       H  0.61313840  0.90146983  0.52836895     0.11300
H3894       H  0.57058056  0.92264856  0.56649397     0.11600
H3895       H  0.59018974  0.95045724  0.57276529     0.07900
C3896       C  0.63040286  0.96953036  0.54150131    -0.11200
C3897       C  0.63971146  0.98664113  0.54416523    -0.10500
C3898       C  0.64321721  0.99336336  0.56244811    -0.01400
C3899       C  0.63767836  0.98252285  0.57805565    -0.11600
C3900       C  0.62797121  0.96557249  0.57538478    -0.10000
H3901       H  0.62748958  0.96480057  0.52727035     0.07900
H3902       H  0.64390512  0.99479481  0.53193169     0.11600
H3903       H  0.64013670  0.98754781  0.59226894     0.11300
H3904       H  0.62330092  0.95762021  0.58757269     0.07900
C3905       C  0.32047676  0.42009511  0.58701299    -0.11200
C3906       C  0.32575807  0.40628383  0.57377550     0.05900
C3907       C  0.33490632  0.41190983  0.55714098    -0.10000
C3908       C  0.33914137  0.43088445  0.55403406    -0.11600
C3909       C  0.33432769  0.44461828  0.56751002    -0.01400
C3910       C  0.32470568  0.43908458  0.58390140    -0.10500
C3911       C  0.32229090  0.38604350  0.57767906     0.05900
H3912       H  0.33887405  0.40161832  0.54657104     0.07900
H3913       H  0.34647447  0.43474855  0.54119648     0.11300
H3914       H  0.32085422  0.44935502  0.59453652     0.11600
H3915       H  0.31359285  0.41615571  0.60007161     0.07900
C3916       C  0.33616507  0.37241678  0.57368828    -0.11200
C3917       C  0.33339195  0.35352309  0.57868197    -0.10500
C3918       C  0.31672356  0.34797279  0.58779260    -0.01400
C3919       C  0.30263617  0.36150427  0.59121360    -0.11600
C3920       C  0.30537600  0.38031170  0.58618755    -0.10000
H3921       H  0.34942838  0.37646884  0.56729417     0.07900
H3922       H  0.34448689  0.34339574  0.57592127     0.11600
H3923       H  0.28954422  0.35762157  0.59806134     0.11300
H3924       H  0.29430373  0.39041932  0.58911376     0.07900
C3925       C  0.61071325  0.44539954  0.70059491    -0.11200
C3926       C  0.62394757  0.45996247  0.69807234     0.05900
C3927       C  0.61782601  0.47747158  0.69114442    -0.10000
C3928       C  0.59903537  0.48012612  0.68607346    -0.11600
C3929       C  0.58595969  0.46534957  0.68789945    -0.01400
C3930       C  0.59186395  0.44808478  0.69558622    -0.10500
C3931       C  0.64422060  0.45656873  0.70164803     0.05900
H3932       H  0.62763737  0.48904694  0.68940025     0.07900
H3933       H  0.59482712  0.49367111  0.68038151     0.11300
H3934       H  0.58207311  0.43646346  0.69713445     0.11600
H3935       H  0.61506380  0.43168969  0.70575027     0.07900
C3936       C  0.65001170  0.44586816  0.71725826    -0.11200
C3937       C  0.66902680  0.44162158  0.71986820    -0.10500
C3938       C  0.68263777  0.44796122  0.70690129    -0.01400
C3939       C  0.67692606  0.45905801  0.69154951    -0.11600
C3940       C  0.65789165  0.46332867  0.68895178    -0.10000
H3941       H  0.63982055  0.44069025  0.72739422     0.07900
H3942       H  0.67301774  0.43308742  0.73189660     0.11600
H3943       H  0.68710532  0.46411706  0.68134357     0.11300
H3944       H  0.65381261  0.47141800  0.67665306     0.07900
C3945       C  0.43285434  0.48413146  0.59133438    -0.11200
C3946       C  0.43181702  0.48159318  0.61098039     0.05900
C3947       C  0.41409014  0.48088114  0.61972604    -0.10000
C3948       C  0.39771243  0.48328465  0.60911687    -0.11600
C3949       C  0.39875822  0.48619163  0.58953813    -0.01400
C3950       C  0.41644409  0.48628551  0.58067472    -0.10500
C3951       C  0.44920200  0.48040104  0.62239692     0.05900
H3952       H  0.41293003  0.47906486  0.63485149     0.07900
H3953       H  0.38421797  0.48309723  0.61627505     0.11300
H3954       H  0.41761252  0.48856832  0.56561210     0.11600
H3955       H  0.44638134  0.48454419  0.58424918     0.07900
C3956       C  0.45113144  0.46671655  0.63662464    -0.11200
C3957       C  0.46780624  0.46547784  0.64707381    -0.10500
C3958       C  0.48269861  0.47805625  0.64358745    -0.01400
C3959       C  0.48050762  0.49203429  0.62968363    -0.11600
C3960       C  0.46397663  0.49313974  0.61915647    -0.10000
H3961       H  0.43991228  0.45671557  0.63935194     0.07900
H3962       H  0.46914173  0.45455294  0.65767085     0.11600
H3963       H  0.49174212  0.50192744  0.62663542     0.11300
H3964       H  0.46270945  0.50401758  0.60849528     0.07900
C3965       C  0.57558311  0.35322052  0.40109357    -0.11200
C3966       C  0.58095308  0.33484166  0.39599995     0.05900
C3967       C  0.58424522  0.32147906  0.41038099    -0.10000
C3968       C  0.58188380  0.32639313  0.42939056    -0.11600
C3969       C  0.57583056  0.34458886  0.43419702    -0.01400
C3970       C  0.57284079  0.35794922  0.41992775    -0.10500
C3971       C  0.58319902  0.32993190  0.37573998     0.05900
H3972       H  0.58828136  0.30715511  0.40695373     0.07900
H3973       H  0.58422468  0.31589603  0.44024503     0.11300
H3974       H  0.56851015  0.37220066  0.42338684     0.11600
H3975       H  0.57356657  0.36405892  0.39052443     0.07900
C3976       C  0.57137401  0.33810467  0.36201715    -0.11200
C3977       C  0.57434659  0.33470063  0.34284117    -0.10500
C3978       C  0.58894609  0.32273931  0.33700496    -0.01400
C3979       C  0.60034029  0.31401335  0.35068270    -0.11600
C3980       C  0.59758633  0.31766535  0.36983438    -0.10000
H3981       H  0.55984096  0.34724904  0.36607298     0.07900
H3982       H  0.56526978  0.34145870  0.33258839     0.11600
H3983       H  0.61181237  0.30480808  0.34655156     0.11300
H3984       H  0.60711080  0.31133334  0.37993834     0.07900
C3985       C  0.53465955  0.28327702  0.50308565    -0.11200
C3986       C  0.51567902  0.28211851  0.49766709     0.05900
C3987       C  0.50620770  0.29877457  0.49240746    -0.10000
C3988       C  0.51577256  0.31609402  0.49193880    -0.11600
C3989       C  0.53493358  0.31707676  0.49686465    -0.01400
C3990       C  0.54413988  0.30051158  0.50273545    -0.10500
C3991       C  0.50606759  0.26348018  0.49717289     0.05900
H3992       H  0.49158615  0.29830801  0.48806277     0.07900
H3993       H  0.50832630  0.32858558  0.48726248     0.11300
H3994       H  0.55889892  0.30073189  0.50661608     0.11600
H3995       H  0.54224920  0.27078583  0.50752849     0.07900
C3996       C  0.51551008  0.24745951  0.49019515    -0.11200
C3997       C  0.50656297  0.22987782  0.48971819    -0.10500
C3998       C  0.48796136  0.22792323  0.49619500    -0.01400
C3999       C  0.47855348  0.24391611  0.50326909    -0.11600
C4000       C  0.48749444  0.26149512  0.50372852    -0.10000
H4001       H  0.52973569  0.24859340  0.48476141     0.07900
H4002       H  0.51408309  0.21790405  0.48393028     0.11600
H4003       H  0.46415990  0.24290651  0.50827062     0.11300
H4004       H  0.47992322  0.27351363  0.50935066     0.07900
C4005       C  0.57080974  0.39617011  0.56877160    -0.11200
C4006       C  0.55695645  0.41028748  0.57035717     0.05900
C4007       C  0.54436366  0.41304882  0.55536780    -0.10000
C4008       C  0.54563386  0.40205583  0.53907803    -0.11600
C4009       C  0.55966425  0.38813335  0.53727099    -0.01400
C4010       C  0.57224002  0.38527407  0.55231792    -0.10500
C4011       C  0.55514594  0.42180785  0.58774632     0.05900
H4012       H  0.53337750  0.42362228  0.55633616     0.07900
H4013       H  0.53574956  0.40469293  0.52774840     0.11300
H4014       H  0.58328609  0.37477628  0.55129569     0.11600
H4015       H  0.58070993  0.39379033  0.58014492     0.07900
C4016       C  0.55478533  0.41305627  0.60549543    -0.11200
C4017       C  0.55132361  0.42363447  0.62177207    -0.10500
C4018       C  0.54847584  0.44324543  0.62069122    -0.01400
C4019       C  0.54958599  0.45214140  0.60302419    -0.11600
C4020       C  0.55271908  0.44148839  0.58667519    -0.10000
H4021       H  0.55649111  0.39791587  0.60670472     0.07900
H4022       H  0.55062411  0.41640899  0.63521831     0.11600
H4023       H  0.54741031  0.46721720  0.60177815     0.11300
H4024       H  0.55306491  0.44858698  0.57314829     0.07900
C4025       C  0.69533616  0.62383268  0.43112000    -0.11200
C4026       C  0.68887654  0.63632579  0.44512230     0.05900
C4027       C  0.68050017  0.62893278  0.46147276    -0.10000
C4028       C  0.67828758  0.60949921  0.46363088    -0.11600
C4029       C  0.68440164  0.59702514  0.44948174    -0.01400
C4030       C  0.69312928  0.60435759  0.43328536    -0.10500
C4031       C  0.69064739  0.65700596  0.44259215     0.05900
H4032       H  0.67567455  0.63818644  0.47262854     0.07900
H4033       H  0.67155019  0.60426531  0.47630977     0.11300
H4034       H  0.69789362  0.59508367  0.42211879     0.11600
H4035       H  0.70167359  0.62913744  0.41826853     0.07900
C4036       C  0.70706693  0.66473778  0.43469515    -0.11200
C4037       C  0.70859170  0.68415200  0.43188459    -0.10500
C4038       C  0.69374418  0.69627738  0.43694124    -0.01400
C4039       C  0.67740924  0.68861627  0.44508667    -0.11600
C4040       C  0.67586586  0.66915117  0.44786588    -0.10000
H4041       H  0.71878789  0.65577336  0.43075630     0.07900
H4042       H  0.72138453  0.68964786  0.42560045     0.11600
H4043       H  0.66569197  0.69760995  0.44897369     0.11300
H4044       H  0.66293336  0.66356179  0.45376168     0.07900
C4045       C  0.64246298  0.46300846  0.47717094    -0.11200
C4046       C  0.63644506  0.45335599  0.46100508     0.05900
C4047       C  0.64069343  0.46074378  0.44311104    -0.10000
C4048       C  0.65051072  0.47783045  0.44148501    -0.11600
C4049       C  0.65573801  0.48787457  0.45774588    -0.01400
C4050       C  0.65186343  0.48016951  0.47556390    -0.10500
C4051       C  0.62483400  0.43623730  0.46325034     0.05900
H4052       H  0.63614878  0.45346175  0.43048000     0.07900
H4053       H  0.65314741  0.48364783  0.42760198     0.11300
H4054       H  0.65566539  0.48769705  0.48830193     0.11600
H4055       H  0.63917256  0.45763924  0.49110095     0.07900
C4056       C  0.63091850  0.42176610  0.47527394    -0.11200
C4057       C  0.61895708  0.40680748  0.47969710    -0.10500
C4058       C  0.60055341  0.40618816  0.47241902    -0.01400
C4059       C  0.59463976  0.42036538  0.45989388    -0.11600
C4060       C  0.60677143  0.43523218  0.45522291    -0.10000
H4061       H  0.64480852  0.42229549  0.48159000     0.07900
H4062       H  0.62394955  0.39599298  0.48926685     0.11600
H4063       H  0.58061064  0.42005650  0.45389197     0.11300
H4064       H  0.60177613  0.44636632  0.44602656     0.07900
C4065       C  0.35895245  0.58375613  0.34207563    -0.11200
C4066       C  0.37319323  0.59062488  0.33002584     0.05900
C4067       C  0.36808012  0.60193771  0.31463077    -0.10000
C4068       C  0.34928563  0.60655715  0.31148295    -0.11600
C4069       C  0.33503717  0.59996483  0.32361101    -0.01400
C4070       C  0.34001393  0.58842150  0.33891246    -0.10500
C4071       C  0.39336617  0.58631055  0.33348056     0.05900
H4072       H  0.37862381  0.60716746  0.30489326     0.07900
H4073       H  0.34596256  0.61549334  0.29954266     0.11300
H4074       H  0.32933958  0.58319813  0.34851016     0.11600
H4075       H  0.36248782  0.57513364  0.35417762     0.07900
C4076       C  0.40724782  0.60020020  0.33052443    -0.11200
C4077       C  0.42624160  0.59624818  0.33382165    -0.10500
C4078       C  0.43171967  0.57839829  0.34034807    -0.01400
C4079       C  0.41791749  0.56442843  0.34308778    -0.11600
C4080       C  0.39893911  0.56832585  0.33963434    -0.10000
H4081       H  0.40339216  0.61429089  0.32605645     0.07900
H4082       H  0.43656071  0.60733269  0.33181475     0.11600
H4083       H  0.42177324  0.55050341  0.34806838     0.11300
H4084       H  0.38863909  0.55724476  0.34171865     0.07900
C4085       C  0.55715856  0.54547992  0.40050680    -0.11200
C4086       C  0.57218228  0.55739178  0.39568540     0.05900
C4087       C  0.56976610  0.57077631  0.38127345    -0.10000
C4088       C  0.55230734  0.57267338  0.37231557    -0.11600
C4089       C  0.53711357  0.56106092  0.37752586    -0.01400
C4090       C  0.53982770  0.54724137  0.39147846    -0.10500
C4091       C  0.59013975  0.55599864  0.40606868     0.05900
H4092       H  0.58120226  0.58011796  0.37735708     0.07900
H4093       H  0.55060351  0.58342620  0.36159562     0.11300
H4094       H  0.52842039  0.53802344  0.39575102     0.11600
H4095       H  0.55881236  0.53485570  0.41137067     0.07900
C4096       C  0.59008733  0.55513294  0.42586156    -0.11200
C4097       C  0.60692565  0.55301930  0.43578088    -0.10500
C4098       C  0.62409106  0.55155089  0.42605423    -0.01400
C4099       C  0.62416574  0.55272350  0.40624778    -0.11600
C4100       C  0.60732722  0.55503675  0.39634009    -0.10000
H4101       H  0.57697662  0.55606539  0.43364990     0.07900
H4102       H  0.60646621  0.55219429  0.45102773     0.11600
H4103       H  0.63722288  0.55167994  0.39838778     0.11300
H4104       H  0.60766785  0.55558896  0.38107512     0.07900
C4105       C  0.42865230  0.71525338  0.61181380    -0.11200
C4106       C  0.44380746  0.71174619  0.62413933     0.05900
C4107       C  0.46062849  0.70440028  0.61676446    -0.10000
C4108       C  0.46201829  0.69985520  0.59769167    -0.11600
C4109       C  0.44663697  0.70259492  0.58549276    -0.01400
C4110       C  0.43006201  0.71072671  0.59263582    -0.10500
C4111       C  0.44168388  0.71447738  0.64477800     0.05900
H4112       H  0.47265301  0.70188043  0.62582705     0.07900
H4113       H  0.47508911  0.69383781  0.59257533     0.11300
H4114       H  0.41800963  0.71302358  0.58355437     0.11600
H4115       H  0.41544825  0.72077331  0.61713203     0.07900
C4116       C  0.43196353  0.73014620  0.65200622    -0.11200
C4117       C  0.42862799  0.73174640  0.67136918    -0.10500
C4118       C  0.43486950  0.71765511  0.68387466    -0.01400
C4119       C  0.44522422  0.70237599  0.67673382    -0.11600
C4120       C  0.44860204  0.70080589  0.65739281    -0.10000
H4121       H  0.42672219  0.74103335  0.64265542     0.07900
H4122       H  0.42068917  0.74375835  0.67647321     0.11600
H4123       H  0.45022422  0.69131822  0.68601780     0.11300
H4124       H  0.45598636  0.68846849  0.65224061     0.07900
C4125       C  0.50589152  0.74987908  0.51199838    -0.11200
C4126       C  0.49683567  0.76701195  0.51650767     0.05900
C4127       C  0.47762418  0.76654184  0.52146713    -0.10000
C4128       C  0.46801985  0.74939136  0.52267557    -0.11600
C4129       C  0.47751536  0.73233048  0.51943883    -0.01400
C4130       C  0.49642495  0.73270331  0.51379517    -0.10500
C4131       C  0.50772837  0.78497608  0.51749350     0.05900
H4132       H  0.47014761  0.77927946  0.52530581     0.07900
H4133       H  0.45340938  0.74941394  0.52713433     0.11300
H4134       H  0.50392972  0.71969714  0.51095339     0.11600
H4135       H  0.52044855  0.74962882  0.50744541     0.07900
C4136       C  0.52683333  0.78465274  0.52279000    -0.11200
C4137       C  0.53696556  0.80133991  0.52479797    -0.10500
C4138       C  0.52818203  0.81884688  0.52210456    -0.01400
C4139       C  0.50914874  0.81940548  0.51683446    -0.11600
C4140       C  0.49907036  0.80260948  0.51428067    -0.10000
H4141       H  0.53394235  0.77154469  0.52602720     0.07900
H4142       H  0.55157802  0.80054829  0.52915844     0.11600
H4143       H  0.50212616  0.83279127  0.51460029     0.11300
H4144       H  0.48450365  0.80350148  0.50986716     0.07900
C4145       C  0.47781270  0.63380225  0.41628685    -0.11200
C4146       C  0.46551448  0.62839609  0.43080914     0.05900
C4147       C  0.45733149  0.61035016  0.43035876    -0.10000
C4148       C  0.46160764  0.59780186  0.41570865    -0.11600
C4149       C  0.47388494  0.60325580  0.40113664    -0.01400
C4150       C  0.48183149  0.62142655  0.40152198    -0.10500
C4151       C  0.46229361  0.64111227  0.44701616     0.05900
H4152       H  0.44798945  0.60582624  0.44157621     0.07900
H4153       H  0.45522031  0.58392565  0.41569702     0.11300
H4154       H  0.49133805  0.62603627  0.39047874     0.11600
H4155       H  0.48430731  0.64763459  0.41638719     0.07900
C4156       C  0.47779303  0.64846082  0.45681585    -0.11200
C4157       C  0.47509292  0.65910336  0.47311750    -0.10500
C4158       C  0.45682887  0.66291023  0.47978321    -0.01400
C4159       C  0.44124569  0.65640627  0.46947067    -0.11600
C4160       C  0.44397144  0.64537166  0.45328136    -0.10000
H4161       H  0.49203823  0.64529783  0.45228698     0.07900
H4162       H  0.48734238  0.66393936  0.48084210     0.11600
H4163       H  0.42704566  0.65901618  0.47445298     0.11300
H4164       H  0.43183039  0.63991066  0.44581766     0.07900
C4165       C  0.39340148  0.61945415  0.54730232    -0.11200
C4166       C  0.40308399  0.60264440  0.55108026     0.05900
C4167       C  0.42282967  0.60294352  0.55258202    -0.10000
C4168       C  0.43278810  0.61974146  0.54989650    -0.11600
C4169       C  0.42315109  0.63646223  0.54547006    -0.01400
C4170       C  0.40334440  0.63619757  0.54443730    -0.10500
C4171       C  0.39271666  0.58463973  0.55236049     0.05900
H4172       H  0.43054597  0.59011050  0.55562777     0.07900
H4173       H  0.44802216  0.61954180  0.55082646     0.11300
H4174       H  0.39551544  0.64887338  0.54105528     0.11600
H4175       H  0.37819433  0.61949606  0.54593425     0.07900
C4176       C  0.37678680  0.58282529  0.56401709    -0.11200
C4177       C  0.36724610  0.56557625  0.56522489    -0.10500
C4178       C  0.37328603  0.55007600  0.55446381    -0.01400
C4179       C  0.38895107  0.55212001  0.54249061    -0.11600
C4180       C  0.39864674  0.56917906  0.54156319    -0.10000
H4181       H  0.37198068  0.59463452  0.57243838     0.07900
H4182       H  0.35523312  0.56433477  0.57458008     0.11600
H4183       H  0.39400817  0.54037562  0.53412350     0.11300
H4184       H  0.41074030  0.57035178  0.53229389     0.07900
C4185       C  0.67687565  0.40830815  0.05365578    -0.11200
C4186       C  0.68803601  0.40194590  0.06868870     0.05900
C4187       C  0.69464047  0.41506390  0.08202462    -0.10000
C4188       C  0.68972764  0.43409504  0.08063663    -0.11600
C4189       C  0.67814207  0.44033711  0.06587649    -0.01400
C4190       C  0.67199754  0.42731040  0.05224880    -0.10500
C4191       C  0.69202159  0.38158612  0.07103598     0.05900
H4192       H  0.70309298  0.41051080  0.09389433     0.07900
H4193       H  0.69466236  0.44382694  0.09132079     0.11300
H4194       H  0.66311646  0.43172724  0.04064088     0.11600
H4195       H  0.67180599  0.39855677  0.04305278     0.07900
C4196       C  0.67771851  0.36813341  0.06821628    -0.11200
C4197       C  0.68094957  0.34910474  0.07222591    -0.10500
C4198       C  0.69848926  0.34326195  0.07923557    -0.01400
C4199       C  0.71301841  0.35657582  0.08125602    -0.11600
C4200       C  0.70983132  0.37554168  0.07714730    -0.10000
H4201       H  0.66379208  0.37242337  0.06367819     0.07900
H4202       H  0.66950279  0.33912465  0.07061713     0.11600
H4203       H  0.72675865  0.35239795  0.08643541     0.11300
H4204       H  0.72120415  0.38554749  0.07908081     0.07900
C4205       C  0.54920256  0.69396113  0.12200558    -0.11200
C4206       C  0.56526770  0.70367327  0.12811879     0.05900
C4207       C  0.57852806  0.70993783  0.11475008    -0.10000
C4208       C  0.57610261  0.70587428  0.09563446    -0.11600
C4209       C  0.56034697  0.69554925  0.08963425    -0.01400
C4210       C  0.54674124  0.68997425  0.10295111    -0.10500
C4211       C  0.56858487  0.70656350  0.14844972     0.05900
H4212       H  0.59111740  0.71736454  0.11915682     0.07900
H4213       H  0.58678789  0.71032397  0.08566294     0.11300
H4214       H  0.53438148  0.68206608  0.09873157     0.11600
H4215       H  0.53864628  0.68926142  0.13200358     0.07900
C4216       C  0.57549073  0.72388048  0.15497771    -0.11200
C4217       C  0.57986685  0.72621833  0.17395399    -0.10500
C4218       C  0.57742091  0.71128178  0.18678700    -0.01400
C4219       C  0.56990583  0.69414121  0.18042161    -0.11600
C4220       C  0.56554249  0.69178816  0.16136048    -0.10000
H4221       H  0.57765157  0.73556593  0.14536468     0.07900
H4222       H  0.58544962  0.73968742  0.17852073     0.11600
H4223       H  0.56793828  0.68242204  0.19003073     0.11300
H4224       H  0.56037273  0.67822251  0.15660754     0.07900
C4225       C  0.50136901  0.74477862  0.02533531    -0.11200
C4226       C  0.51217293  0.76078454  0.02072175     0.05900
C4227       C  0.53146137  0.75846046  0.01686675    -0.10000
C4228       C  0.53984587  0.74063744  0.01810190    -0.11600
C4229       C  0.52915093  0.72474353  0.02331776    -0.01400
C4230       C  0.50976522  0.72696791  0.02664201    -0.10500
C4231       C  0.50343364  0.77987009  0.02077366     0.05900
H4232       H  0.54011122  0.77046625  0.01306269     0.07900
H4233       H  0.55483613  0.73941131  0.01547867     0.11300
H4234       H  0.50117460  0.71504111  0.03081396     0.11600
H4235       H  0.48652344  0.74612398  0.02862300     0.07900
C4236       C  0.48518816  0.78256122  0.01357951    -0.11200
C4237       C  0.47625636  0.80006618  0.01515023    -0.10500
C4238       C  0.48535575  0.81532980  0.02394178    -0.01400
C4239       C  0.50389058  0.81288436  0.03048749    -0.11600
C4240       C  0.51283888  0.79533445  0.02892021    -0.10000
H4241       H  0.47769738  0.77102492  0.00694556     0.07900
H4242       H  0.46201436  0.80150874  0.00986034     0.11600
H4243       H  0.51124739  0.82434458  0.03739981     0.11300
H4244       H  0.52683975  0.79367930  0.03475921     0.07900
C4245       C  0.58484471  0.59612132  0.05890123    -0.11200
C4246       C  0.60455541  0.59695298  0.06074286     0.05900
C4247       C  0.61360584  0.61450744  0.05995427    -0.10000
C4248       C  0.60324183  0.63083955  0.05619589    -0.11600
C4249       C  0.58362570  0.62990632  0.05341621    -0.01400
C4250       C  0.57443665  0.61248882  0.05540467    -0.10500
C4251       C  0.61574250  0.57938791  0.06127847     0.05900
H4252       H  0.62878975  0.61544913  0.06124258     0.07900
H4253       H  0.61066376  0.64413624  0.05494189     0.11300
H4254       H  0.55933937  0.61138626  0.05344452     0.11600
H4255       H  0.57758592  0.58269019  0.05959015     0.07900
C4256       C  0.62992850  0.57648094  0.07480718    -0.11200
C4257       C  0.64030220  0.55962444  0.07490705    -0.10500
C4258       C  0.63681352  0.54566725  0.06125857    -0.01400
C4259       C  0.62297011  0.54897060  0.04746958    -0.11600
C4260       C  0.61250734  0.56556153  0.04755488    -0.10000
H4261       H  0.63270669  0.58707408  0.08545463     0.07900
H4262       H  0.65083951  0.55742252  0.08572732     0.11600
H4263       H  0.61990805  0.53854207  0.03673919     0.11300
H4264       H  0.60190957  0.56766825  0.03676168     0.07900
C4265       C  0.36174700  0.44008953  0.21611977    -0.11200
C4266       C  0.36790773  0.45416370  0.20358834     0.05900
C4267       C  0.35430611  0.46533595  0.19433908    -0.10000
C4268       C  0.33507295  0.46183758  0.19681005    -0.11600
C4269       C  0.32906391  0.44740394  0.20891195    -0.01400
C4270       C  0.34255979  0.43687187  0.21886939    -0.10500
C4271       C  0.38832842  0.45633618  0.19929834     0.05900
H4272       H  0.35848982  0.47665641  0.18498276     0.07900
H4273       H  0.32492469  0.47031120  0.18916398     0.11300
H4274       H  0.33830778  0.42559361  0.22826988     0.11600
H4275       H  0.37169600  0.43099866  0.22327518     0.07900
C4276       C  0.40221691  0.45268004  0.21305953    -0.11200
C4277       C  0.42139502  0.45370721  0.20848773    -0.10500
C4278       C  0.42694957  0.45890733  0.19025788    -0.01400
C4279       C  0.41320474  0.46280850  0.17662001    -0.11600
C4280       C  0.39413350  0.46129458  0.18099370    -0.10000
H4281       H  0.39830965  0.44913138  0.22738511     0.07900
H4282       H  0.43185324  0.45087476  0.21924547     0.11600
H4283       H  0.41725764  0.46668988  0.16239775     0.11300
H4284       H  0.38398020  0.46366383  0.16985929     0.07900
C4285       C  0.50535181  0.53509007  0.27890651    -0.11200
C4286       C  0.49661676  0.51746140  0.27679732     0.05900
C4287       C  0.48763781  0.50921295  0.29246713    -0.10000
C4288       C  0.48664968  0.51886958  0.30966770    -0.11600
C4289       C  0.49459527  0.53693010  0.31143644    -0.01400
C4290       C  0.50434514  0.54472066  0.29602374    -0.10500
C4291       C  0.49591142  0.50831308  0.25801640     0.05900
H4292       H  0.48068781  0.49567152  0.29118689     0.07900
H4293       H  0.47901052  0.51256124  0.32130428     0.11300
H4294       H  0.51080677  0.55852724  0.29703481     0.11600
H4295       H  0.51266386  0.54160308  0.26717052     0.07900
C4296       C  0.49155846  0.51901718  0.24188756    -0.11200
C4297       C  0.48980532  0.51035456  0.22427981    -0.10500
C4298       C  0.49248015  0.49082453  0.22242359    -0.01400
C4299       C  0.49730147  0.48018961  0.23847685    -0.11600
C4300       C  0.49891584  0.48883770  0.25611152    -0.10000
H4301       H  0.48893937  0.53402985  0.24299142     0.07900
H4302       H  0.48598912  0.51889175  0.21219759     0.11600
H4303       H  0.49940948  0.46508778  0.23750424     0.11300
H4304       H  0.50243902  0.48029500  0.26828017     0.07900
C4305       C  0.58083795  0.47289374  0.09742953    -0.11200
C4306       C  0.58255751  0.47154620  0.11712972     0.05900
C4307       C  0.60042584  0.47316024  0.12538154    -0.10000
C4308       C  0.61622367  0.47688976  0.11416983    -0.11600
C4309       C  0.61445648  0.47878418  0.09447985    -0.01400
C4310       C  0.59666785  0.47632694  0.08618080    -0.10500
C4311       C  0.56550537  0.47031945  0.12905869     0.05900
H4312       H  0.60202264  0.47233050  0.14055214     0.07900
H4313       H  0.62978231  0.47862552  0.12096062     0.11300
H4314       H  0.59488218  0.47767477  0.07107263     0.11600
H4315       H  0.56714124  0.47166310  0.09079749     0.07900
C4316       C  0.55127010  0.48380556  0.12679276    -0.11200
C4317       C  0.53500128  0.48302794  0.13774489    -0.10500
C4318       C  0.53239287  0.46854911  0.15107162    -0.01400
C4319       C  0.54674913  0.45508949  0.15354217    -0.11600
C4320       C  0.56332238  0.45610672  0.14273503    -0.10000
H4321       H  0.55277736  0.49502472  0.11651584     0.07900
H4322       H  0.52421505  0.49358175  0.13538289     0.11600
H4323       H  0.54507834  0.44373207  0.16362573     0.11300
H4324       H  0.57422534  0.44559488  0.14471832     0.07900
C4325       C  0.45501260  0.33411850  0.90864482    -0.11200
C4326       C  0.43757792  0.32747750  0.90215717     0.05900
C4327       C  0.42317485  0.32363824  0.91524027    -0.10000
C4328       C  0.42579936  0.32761691  0.93438540    -0.11600
C4329       C  0.44287669  0.33542787  0.94063640    -0.01400
C4330       C  0.45764405  0.33803692  0.92767838    -0.10500
C4331       C  0.43408994  0.32604475  0.88168187     0.05900
H4332       H  0.40958543  0.31851461  0.91053999     0.07900
H4333       H  0.41421916  0.32541937  0.94410160     0.11300
H4334       H  0.47106455  0.34380933  0.93211362     0.11600
H4335       H  0.46645200  0.33680902  0.89887843     0.07900
C4336       C  0.43984468  0.34073201  0.86966083    -0.11200
C4337       C  0.43621446  0.33985726  0.85036739    -0.10500
C4338       C  0.42673861  0.32427734  0.84272375    -0.01400
C4339       C  0.42106763  0.30951395  0.85472629    -0.11600
C4340       C  0.42467583  0.31041434  0.87406277    -0.10000
H4341       H  0.44685455  0.35309825  0.87525620     0.07900
H4342       H  0.44064989  0.35146989  0.84147885     0.11600
H4343       H  0.41376983  0.29729049  0.84919204     0.11300
H4344       H  0.42021046  0.29888317  0.88304336     0.07900
C4345       C  0.47922290  0.27668563  0.00522686    -0.11200
C4346       C  0.49837903  0.27723026  0.01037093     0.05900
C4347       C  0.50641571  0.29480395  0.01508899    -0.10000
C4348       C  0.49600845  0.31145016  0.01330273    -0.11600
C4349       C  0.47716957  0.31081313  0.00743679    -0.01400
C4350       C  0.46868921  0.29327471  0.00402070    -0.10500
C4351       C  0.51023116  0.25987798  0.00920999     0.05900
H4352       H  0.52090739  0.29581832  0.01971960     0.07900
H4353       H  0.50275962  0.32484516  0.01620988     0.11300
H4354       H  0.45418836  0.29246898  0.99930965     0.11600
H4355       H  0.47251533  0.26359924  0.00116680     0.07900
C4356       C  0.50241905  0.24179663  0.01205351    -0.11200
C4357       C  0.51317301  0.22554696  0.00886263    -0.10500
C4358       C  0.53208218  0.22706374  0.00331299    -0.01400
C4359       C  0.54012636  0.24501394  0.00121358    -0.11600
C4360       C  0.52930235  0.26120099  0.00388108    -0.10000
H4361       H  0.48794317  0.24012939  0.01656937     0.07900
H4362       H  0.50673426  0.21181819  0.01075080     0.11600
H4363       H  0.55465896  0.24655679  0.99676180     0.11300
H4364       H  0.53580729  0.27470802  0.00102963     0.07900
C4365       C  0.46907690  0.40810267  0.06046781    -0.11200
C4366       C  0.45738712  0.40434282  0.07597110     0.05900
C4367       C  0.44400637  0.38974778  0.07468420    -0.10000
C4368       C  0.44224096  0.37924904  0.05805376    -0.11600
C4369       C  0.45397055  0.38308939  0.04256541    -0.01400
C4370       C  0.46741984  0.39758534  0.04398985    -0.10500
C4371       C  0.45965197  0.41539506  0.09351834     0.05900
H4372       H  0.43476783  0.38663355  0.08644814     0.07900
H4373       H  0.43171986  0.36820715  0.05729583     0.11300
H4374       H  0.47664115  0.40094997  0.03227682     0.11600
H4375       H  0.47972185  0.41903389  0.06117138     0.07900
C4376       C  0.45994923  0.40627578  0.11108129    -0.11200
C4377       C  0.46362190  0.41647870  0.12749741    -0.10500
C4378       C  0.46690849  0.43601696  0.12667505    -0.01400
C4379       C  0.46605809  0.44525118  0.10919025    -0.11600
C4380       C  0.46253251  0.43501440  0.09274386    -0.10000
H4381       H  0.45795732  0.39115704  0.11205354     0.07900
H4382       H  0.46411557  0.40901828  0.14082461     0.11600
H4383       H  0.46853200  0.46029631  0.10817223     0.11300
H4384       H  0.46218021  0.44241765  0.07938023     0.07900
C4385       C  0.30990301  0.61868782  0.94243201    -0.11200
C4386       C  0.32196081  0.63267952  0.94981196     0.05900
C4387       C  0.33761858  0.62697450  0.96053650    -0.10000
C4388       C  0.34116980  0.60791429  0.96373709    -0.11600
C4389       C  0.32944319  0.59402397  0.95593566    -0.01400
C4390       C  0.31376034  0.59952929  0.94526217    -0.10500
C4391       C  0.31885654  0.65305844  0.94568550     0.05900
H4392       H  0.34754447  0.63716967  0.96603335     0.07900
H4393       H  0.35353639  0.60402502  0.97180656     0.11300
H4394       H  0.30447718  0.58904067  0.93917799     0.11600
H4395       H  0.29749486  0.62248373  0.93441962     0.07900
C4396       C  0.31109662  0.65872926  0.92833793    -0.11200
C4397       C  0.30923587  0.67782309  0.92396564    -0.10500
C4398       C  0.31552097  0.69169394  0.93660006    -0.01400
C4399       C  0.32309100  0.68621604  0.95399003    -0.11600
C4400       C  0.32448154  0.66708973  0.95861763    -0.10000
H4401       H  0.30697260  0.64847184  0.91782187     0.07900
H4402       H  0.30346011  0.68174545  0.91037647     0.11600
H4403       H  0.32779486  0.69671878  0.96403419     0.11300
H4404       H  0.33005203  0.66334614  0.97231882     0.07900
C4405       C  0.37154442  0.45547838  0.95619924    -0.11200
C4406       C  0.38830551  0.45400283  0.96667578     0.05900
C4407       C  0.39494102  0.46981348  0.97651760    -0.10000
C4408       C  0.38503439  0.48676068  0.97600384    -0.11600
C4409       C  0.36839346  0.48839707  0.96540498    -0.01400
C4410       C  0.36176357  0.47265335  0.95537532    -0.10500
C4411       C  0.39870102  0.43597146  0.96809536     0.05900
H4412       H  0.40768045  0.46896974  0.98489015     0.07900
H4413       H  0.39059837  0.49871841  0.98371296     0.11300
H4414       H  0.34901205  0.47360202  0.94704402     0.11600
H4415       H  0.36617483  0.44342690  0.94850544     0.07900
C4416       C  0.38922271  0.41930915  0.97301227    -0.11200
C4417       C  0.39937306  0.40285414  0.97686470    -0.10500
C4418       C  0.41916495  0.40273931  0.97567405    -0.01400
C4419       C  0.42855071  0.41917665  0.96983572    -0.11600
C4420       C  0.41841368  0.43566450  0.96617153    -0.10000
H4421       H  0.37404885  0.41924584  0.97470782     0.07900
H4422       H  0.39175079  0.39035391  0.98123903     0.11600
H4423       H  0.44377192  0.41948370  0.96870810     0.11300
H4424       H  0.42600568  0.44833073  0.96223235     0.07900
C4425       C  0.60447471  0.59732213  0.82411753    -0.11200
C4426       C  0.61808312  0.58392021  0.82946002     0.05900
C4427       C  0.61220795  0.56719327  0.83828477    -0.10000
C4428       C  0.59316233  0.56409449  0.84204371    -0.11600
C4429       C  0.57960659  0.57767191  0.83706825    -0.01400
C4430       C  0.58540791  0.59421902  0.82787368    -0.10500
C4431       C  0.63836255  0.58758726  0.82618618     0.05900
H4432       H  0.62234868  0.55650476  0.84230355     0.07900
H4433       H  0.58910013  0.55118091  0.84913889     0.11300
H4434       H  0.57527498  0.60495853  0.82396860     0.11600
H4435       H  0.60861613  0.61045705  0.81749700     0.07900
C4436       C  0.64437054  0.59611834  0.80935991    -0.11200
C4437       C  0.66333547  0.60043693  0.80660779    -0.10500
C4438       C  0.67671671  0.59626666  0.82059986    -0.01400
C4439       C  0.67082515  0.58731425  0.83725432    -0.11600
C4440       C  0.65180056  0.58303683  0.84003688    -0.10000
H4441       H  0.63438410  0.59950845  0.79832450     0.07900
H4442       H  0.66747141  0.60730169  0.79359470     0.11600
H4443       H  0.68081978  0.58408115  0.84833045     0.11300
H4444       H  0.64753490  0.57666456  0.85325387     0.07900
C4445       C  0.50873541  0.51759550  0.78588047    -0.11200
C4446       C  0.51370685  0.52740931  0.76926307     0.05900
C4447       C  0.51855888  0.54662090  0.77082533    -0.10000
C4448       C  0.51888960  0.55554989  0.78838370    -0.11600
C4449       C  0.51492554  0.54542503  0.80492577    -0.01400
C4450       C  0.50967403  0.52641597  0.80353211    -0.10500
C4451       C  0.51496140  0.51748032  0.75063966     0.05900
H4452       H  0.52288551  0.55470322  0.75863042     0.07900
H4453       H  0.52319402  0.57019929  0.78910474     0.11300
H4454       H  0.50639326  0.51836166  0.81610002     0.11600
H4455       H  0.50432884  0.50299631  0.78537850     0.07900
C4456       C  0.51949307  0.49814544  0.74981081    -0.11200
C4457       C  0.52182569  0.48904333  0.73250100    -0.10500
C4458       C  0.52022704  0.49907634  0.71551078    -0.01400
C4459       C  0.51557337  0.51829374  0.71612754    -0.11600
C4460       C  0.51267042  0.52732664  0.73347153    -0.10000
H4461       H  0.52191039  0.49003752  0.76250228     0.07900
H4462       H  0.52562273  0.47423597  0.73244198     0.11600
H4463       H  0.51411257  0.52630832  0.70320114     0.11300
H4464       H  0.50871208  0.54206297  0.73332761     0.07900
C4465       C  0.42523124  0.56072925  0.92933988    -0.11200
C4466       C  0.42386586  0.56214170  0.90963992     0.05900
C4467       C  0.40624176  0.56033284  0.90095504    -0.10000
C4468       C  0.39026305  0.55638349  0.91177659    -0.11600
C4469       C  0.39164406  0.55446340  0.93147842    -0.01400
C4470       C  0.40920750  0.55709017  0.94020994    -0.10500
C4471       C  0.44105726  0.56358660  0.89809718     0.05900
H4472       H  0.40499404  0.56121709  0.88575326     0.07900
H4473       H  0.37687296  0.55454527  0.90468647     0.11300
H4474       H  0.41066487  0.55575170  0.95535546     0.11600
H4475       H  0.43878486  0.56207206  0.93624121     0.07900
C4476       C  0.44386984  0.57869567  0.88559236    -0.11200
C4477       C  0.46054431  0.57988020  0.87503400    -0.10500
C4478       C  0.47438894  0.56576918  0.87665047    -0.01400
C4479       C  0.47113658  0.55041045  0.88878973    -0.11600
C4480       C  0.45471577  0.54941452  0.89948632    -0.10000
H4481       H  0.43337161  0.58972208  0.88433475     0.07900
H4482       H  0.46273259  0.59192024  0.86588293     0.11600
H4483       H  0.48150479  0.53930938  0.89039711     0.11300
H4484       H  0.45263722  0.53753260  0.90888347     0.07900
C4485       C  0.54864593  0.62785402  0.91730087    -0.11200
C4486       C  0.54779699  0.61894566  0.93494150     0.05900
C4487       C  0.54403762  0.59947569  0.93579434    -0.10000
C4488       C  0.54063712  0.58920892  0.91930331    -0.11600
C4489       C  0.54061241  0.59833285  0.90173780    -0.01400
C4490       C  0.54493485  0.61767323  0.90086145    -0.10500
C4491       C  0.54936803  0.63019181  0.95244403     0.05900
H4492       H  0.54344252  0.59228445  0.94926597     0.07900
H4493       H  0.53737241  0.57431565  0.92034487     0.11300
H4494       H  0.54516295  0.62500717  0.88745621     0.11600
H4495       H  0.55140289  0.64285308  0.91629566     0.07900
C4496       C  0.56390433  0.64345806  0.95490189    -0.11200
C4497       C  0.56499962  0.65412298  0.97151512    -0.10500
C4498       C  0.55138976  0.65186868  0.98574845    -0.01400
C4499       C  0.53670557  0.63881923  0.98302806    -0.11600
C4500       C  0.53576803  0.62805695  0.96662857    -0.10000
H4501       H  0.57454337  0.64534428  0.94410104     0.07900
H4502       H  0.57651595  0.66399259  0.97327760     0.11600
H4503       H  0.52601327  0.63667711  0.99372895     0.11300
H4504       H  0.52424742  0.61817030  0.96492959     0.07900
C4505       C  0.05804226  0.70511462  0.40551604    -0.11200
C4506       C  0.07583926  0.71050214  0.39872661     0.05900
C4507       C  0.09072446  0.71271277  0.41166076    -0.10000
C4508       C  0.08798119  0.70908226  0.43089480    -0.11600
C4509       C  0.07031127  0.70313101  0.43755248    -0.01400
C4510       C  0.05531478  0.70146084  0.42468869    -0.10500
C4511       C  0.07897295  0.71333995  0.37818416     0.05900
H4512       H  0.10465025  0.71667585  0.40681640     0.07900
H4513       H  0.09983184  0.71030990  0.44043611     0.11300
H4514       H  0.04149133  0.69699603  0.42940048     0.11600
H4515       H  0.04623312  0.70360716  0.39596124     0.07900
C4516       C  0.07130842  0.70070661  0.36492968    -0.11200
C4517       C  0.07481969  0.70301437  0.34562753    -0.10500
C4518       C  0.08597045  0.71806965  0.33917725    -0.01400
C4519       C  0.09334605  0.73087052  0.35241565    -0.11600
C4520       C  0.08993603  0.72849785  0.37168509    -0.10000
H4521       H  0.06294638  0.68877869  0.36952722     0.07900
H4522       H  0.06895082  0.69292216  0.33578183     0.11600
H4523       H  0.10195821  0.74265555  0.34790881     0.11300
H4524       H  0.09582487  0.73858783  0.38152071     0.07900
C4525       C  0.03034783  0.76419882  0.50327627    -0.11200
C4526       C  0.01101867  0.76327512  0.50767139     0.05900
C4527       C  0.00279264  0.74536769  0.51045067    -0.10000
C4528       C  0.01336930  0.72888580  0.50795470    -0.11600
C4529       C  0.03251173  0.72996550  0.50317791    -0.01400
C4530       C  0.04098644  0.74775999  0.50128103    -0.10500
C4531       C  0.99933871  0.78079872  0.50803482     0.05900
H4532       H  0.98810624  0.74401309  0.51434615     0.07900
H4533       H  0.00658497  0.71530835  0.50971520     0.11300
H4534       H  0.05572737  0.74897903  0.49746534     0.11600
H4535       H  0.03720500  0.77757200  0.50061742     0.07900
C4536       C  0.00721996  0.79833260  0.51316265    -0.11200
C4537       C  0.99679989  0.81500084  0.51135547    -0.10500
C4538       C  0.97811267  0.81441791  0.50498068    -0.01400
C4539       C  0.96989705  0.79693641  0.50075324    -0.11600
C4540       C  0.98043715  0.78035794  0.50201476    -0.10000
H4541       H  0.02153622  0.79927529  0.51832508     0.07900
H4542       H  0.00336180  0.82835241  0.51483353     0.11600
H4543       H  0.95555459  0.79617687  0.49557310     0.11300
H4544       H  0.97390904  0.76732746  0.49750560     0.07900
C4545       C  0.15025352  0.59739529  0.71901610    -0.11200
C4546       C  0.14381583  0.58989985  0.70191909     0.05900
C4547       C  0.15671366  0.58638005  0.68728006    -0.10000
C4548       C  0.17573913  0.59071567  0.68958583    -0.11600
C4549       C  0.18206688  0.59866803  0.70654236    -0.01400
C4550       C  0.16921924  0.60175623  0.72130815    -0.10500
C4551       C  0.12357966  0.58641869  0.69909649     0.05900
H4552       H  0.15198785  0.58079170  0.67387516     0.07900
H4553       H  0.18537362  0.58830836  0.67797455     0.11300
H4554       H  0.17378012  0.60775586  0.73459241     0.11600
H4555       H  0.14058518  0.59997664  0.73056256     0.07900
C4556       C  0.11754916  0.56984852  0.69019864    -0.11200
C4557       C  0.09854196  0.56717389  0.68626680    -0.10500
C4558       C  0.08524971  0.58106729  0.69110581    -0.01400
C4559       C  0.09117635  0.59733640  0.70065003    -0.11600
C4560       C  0.11023607  0.59999456  0.70462120    -0.10000
H4561       H  0.12757425  0.55907525  0.68608778     0.07900
H4562       H  0.09433491  0.55441103  0.67900018     0.11600
H4563       H  0.08120326  0.60825377  0.70448393     0.11300
H4564       H  0.11462696  0.61296595  0.71139068     0.07900
C4565       C  0.05336583  0.63551411  0.61063205    -0.11200
C4566       C  0.05398968  0.62681742  0.59285557     0.05900
C4567       C  0.05188212  0.60709615  0.59177249    -0.10000
C4568       C  0.04867113  0.59637583  0.60804753    -0.11600
C4569       C  0.04727040  0.60518245  0.62572628    -0.01400
C4570       C  0.04991496  0.62482844  0.62687789    -0.10500
C4571       C  0.05558467  0.63832904  0.57538803     0.05900
H4572       H  0.05249469  0.59998918  0.57826439     0.07900
H4573       H  0.04671530  0.58127883  0.60671906     0.11300
H4574       H  0.04901174  0.63200466  0.64033331     0.11600
H4575       H  0.05482158  0.65067294  0.61188720     0.07900
C4576       C  0.04359689  0.63459518  0.56012108    -0.11200
C4577       C  0.04473680  0.64526566  0.54363405    -0.10500
C4578       C  0.05800295  0.65991931  0.54184847    -0.01400
C4579       C  0.06994670  0.66383951  0.55717060    -0.11600
C4580       C  0.06865276  0.65321130  0.57385788    -0.10000
H4581       H  0.03316653  0.62346778  0.56099052     0.07900
H4582       H  0.03531865  0.64180053  0.53213139     0.11600
H4583       H  0.08037339  0.67495368  0.55619070     0.11300
H4584       H  0.07808851  0.65637754  0.58543021     0.07900
C4585       C  0.16976445  0.41533335  0.46177402    -0.11200
C4586       C  0.18667273  0.40933834  0.45335993     0.05900
C4587       C  0.19941941  0.42300499  0.44659716    -0.10000
C4588       C  0.19502308  0.44215156  0.44755357    -0.11600
C4589       C  0.17806777  0.44800554  0.45577825    -0.01400
C4590       C  0.16559675  0.43450343  0.46313252    -0.10500
C4591       C  0.19043384  0.38896537  0.45046970     0.05900
H4592       H  0.21278947  0.41892786  0.44046527     0.07900
H4593       H  0.20497377  0.45238736  0.44209835     0.11300
H4594       H  0.15238756  0.43876179  0.46952166     0.11600
H4595       H  0.15947216  0.40524380  0.46681355     0.07900
C4596       C  0.18424610  0.37529575  0.46353824    -0.11200
C4597       C  0.18670975  0.35605473  0.45982278    -0.10500
C4598       C  0.19578831  0.35030292  0.44323212    -0.01400
C4599       C  0.20236649  0.36391859  0.43048064    -0.11600
C4600       C  0.19952953  0.38298470  0.43392884    -0.10000
H4601       H  0.17743668  0.37943959  0.47656200     0.07900
H4602       H  0.18163249  0.34572397  0.46987726     0.11600
H4603       H  0.20916881  0.35978953  0.41742887     0.11300
H4604       H  0.20399004  0.39298235  0.42327970     0.07900
C4605       C  0.28426276  0.50643998  0.50453512    -0.11200
C4606       C  0.26804239  0.51096551  0.51502926     0.05900
C4607       C  0.26986681  0.51494713  0.53432951    -0.10000
C4608       C  0.28742740  0.51389351  0.54308257    -0.11600
C4609       C  0.30355071  0.50878591  0.53273794    -0.01400
C4610       C  0.30186056  0.50534511  0.51331466    -0.10500
C4611       C  0.24921165  0.51102522  0.50601062     0.05900
H4612       H  0.25767838  0.51877988  0.54269652     0.07900
H4613       H  0.28827940  0.51666587  0.55808159     0.11300
H4614       H  0.31403314  0.50133048  0.50500929     0.11600
H4615       H  0.28326028  0.50313983  0.48965561     0.07900
C4616       C  0.24685611  0.51847730  0.48782424    -0.11200
C4617       C  0.22928652  0.51788173  0.47904204    -0.10500
C4618       C  0.21367428  0.50988615  0.48828089    -0.01400
C4619       C  0.21590157  0.50273883  0.50660331    -0.11600
C4620       C  0.23352597  0.50326499  0.51537353    -0.10000
H4621       H  0.25861071  0.52477528  0.48037851     0.07900
H4622       H  0.22797895  0.52353583  0.46490634     0.11600
H4623       H  0.20415811  0.49630939  0.51395732     0.11300
H4624       H  0.23498427  0.49715681  0.52930069     0.07900
C4625       C  0.13441724  0.58387109  0.45019679    -0.11200
C4626       C  0.13118591  0.59160396  0.46813402     0.05900
C4627       C  0.13816961  0.58232252  0.48415361    -0.10000
C4628       C  0.14728189  0.56500411  0.48236425    -0.11600
C4629       C  0.14987889  0.55689934  0.46450232    -0.01400
C4630       C  0.14392296  0.56669780  0.44837285    -0.10500
C4631       C  0.11959290  0.60869425  0.47041683     0.05900
H4632       H  0.13575694  0.58802700  0.49812486     0.07900
H4633       H  0.15177817  0.55764543  0.49497942     0.11300
H4634       H  0.14565809  0.56057695  0.43448071     0.11600
H4635       H  0.12922408  0.59092046  0.43767977     0.07900
C4636       C  0.12590189  0.62343567  0.48194495    -0.11200
C4637       C  0.11436682  0.63895776  0.48536789    -0.10500
C4638       C  0.09618615  0.63990471  0.47754297    -0.01400
C4639       C  0.08992575  0.62524151  0.46581884    -0.11600
C4640       C  0.10162495  0.60978734  0.46216879    -0.10000
H4641       H  0.13971709  0.62284914  0.48841897     0.07900
H4642       H  0.11956635  0.65005716  0.49448156     0.11600
H4643       H  0.07600127  0.62567589  0.45958619     0.11300
H4644       H  0.09643911  0.59841005  0.45339434     0.07900
C4645       C  0.90753593  0.44405520  0.32061565    -0.11200
C4646       C  0.89350836  0.45621214  0.32759270     0.05900
C4647       C  0.89877483  0.47154962  0.33893088    -0.10000
C4648       C  0.91767483  0.47457541  0.34335970    -0.11600
C4649       C  0.93168530  0.46228525  0.33659300    -0.01400
C4650       C  0.92646098  0.44705104  0.32509333    -0.10500
C4651       C  0.87341577  0.45268983  0.32332625     0.05900
H4652       H  0.88827753  0.48125038  0.34431616     0.07900
H4653       H  0.92127754  0.48643939  0.35228504     0.11300
H4654       H  0.93695427  0.43731623  0.31976496     0.11600
H4655       H  0.90382807  0.43197232  0.31203644     0.07900
C4656       C  0.86792489  0.44706129  0.30516421    -0.11200
C4657       C  0.84912411  0.44281541  0.30135034    -0.10500
C4658       C  0.83543892  0.44420446  0.31560219    -0.01400
C4659       C  0.84080918  0.45032568  0.33364338    -0.11600
C4660       C  0.85965153  0.45448970  0.33748559    -0.10000
H4661       H  0.87819809  0.44586496  0.29392362     0.07900
H4662       H  0.84534065  0.43821528  0.28728456     0.11600
H4663       H  0.83055895  0.45135103  0.34492415     0.11300
H4664       H  0.86353677  0.45859555  0.35167449     0.07900
C4665       C  0.06392401  0.46334821  0.39164754    -0.11200
C4666       C  0.07030716  0.48174978  0.39524766     0.05900
C4667       C  0.06042389  0.49716803  0.38783723    -0.10000
C4668       C  0.04391158  0.49431177  0.37764361    -0.11600
C4669       C  0.03722153  0.47596975  0.37435624    -0.01400
C4670       C  0.04755319  0.46045456  0.38102952    -0.10500
C4671       C  0.08703618  0.48513587  0.40700765     0.05900
H4672       H  0.06516120  0.51145411  0.39050068     0.07900
H4673       H  0.03612492  0.50647692  0.37264893     0.11300
H4674       H  0.04249743  0.44620689  0.37880978     0.11600
H4675       H  0.07150380  0.45130123  0.39720131     0.07900
C4676       C  0.08771077  0.47861986  0.42569733    -0.11200
C4677       C  0.10320497  0.48288389  0.43712554    -0.10500
C4678       C  0.11833564  0.49337482  0.42982741    -0.01400
C4679       C  0.11760186  0.49977152  0.41108143    -0.11600
C4680       C  0.10200642  0.49583751  0.39983306    -0.10000
H4681       H  0.07612063  0.47052623  0.43149733     0.07900
H4682       H  0.10351750  0.47772446  0.45150267     0.11600
H4683       H  0.12907263  0.50792495  0.40512955     0.11300
H4684       H  0.10164443  0.50105152  0.38547037     0.07900
C4685       C  0.94271342  0.32652068  0.61335413    -0.11200
C4686       C  0.94847102  0.33940112  0.62735136     0.05900
C4687       C  0.95638830  0.35670358  0.62181990    -0.10000
C4688       C  0.95857772  0.36101624  0.60282435    -0.11600
C4689       C  0.95250216  0.34834029  0.58894757    -0.01400
C4690       C  0.94449763  0.33107920  0.59426158    -0.10500
C4691       C  0.94521495  0.33549968  0.64761823     0.05900
H4692       H  0.96046699  0.36718682  0.63213615     0.07900
H4693       H  0.96461428  0.37452060  0.59895705     0.11300
H4694       H  0.93991220  0.32106052  0.58368140     0.11600
H4695       H  0.93681718  0.31294775  0.61712991     0.07900
C4696       C  0.92881159  0.32603878  0.65339214    -0.11200
C4697       C  0.92471611  0.32402022  0.67247430    -0.10500
C4698       C  0.93672637  0.33172950  0.68617318    -0.01400
C4699       C  0.95335738  0.34076168  0.68056886    -0.11600
C4700       C  0.95770387  0.34241060  0.66143173    -0.10000
H4701       H  0.91870974  0.32084105  0.64321057     0.07900
H4702       H  0.91173273  0.31704203  0.67649888     0.11600
H4703       H  0.96293483  0.34654785  0.69095511     0.11300
H4704       H  0.97070431  0.34935657  0.65746275     0.07900
C4705       C  0.99880932  0.24368048  0.52756043    -0.11200
C4706       C  0.00823529  0.25909679  0.51932780     0.05900
C4707       C  0.02627376  0.25636672  0.51169801    -0.10000
C4708       C  0.03520157  0.23893055  0.51330183    -0.11600
C4709       C  0.02628756  0.22383015  0.52258200    -0.01400
C4710       C  0.00777252  0.22616529  0.52917212    -0.10500
C4711       C  0.99993622  0.27826138  0.51997383     0.05900
H4712       H  0.03369585  0.26788994  0.50493490     0.07900
H4713       H  0.04940246  0.23749688  0.50786888     0.11300
H4714       H  0.00058374  0.21476928  0.53638321     0.11600
H4715       H  0.98490693  0.24541954  0.53363019     0.07900
C4716       C  0.98069976  0.28106049  0.51637848    -0.11200
C4717       C  0.97273100  0.29897089  0.51828705    -0.10500
C4718       C  0.98382245  0.31441996  0.52394247    -0.01400
C4719       C  0.00314695  0.31171271  0.52711997    -0.11600
C4720       C  0.01113147  0.29381158  0.52512607    -0.10000
H4721       H  0.97179786  0.26936647  0.51222171     0.07900
H4722       H  0.95777788  0.30062410  0.51571418     0.11600
H4723       H  0.01201814  0.32333176  0.53154234     0.11300
H4724       H  0.02596418  0.29201530  0.52823759     0.07900
C4725       C  0.98058228  0.40756403  0.46319827    -0.11200
C4726       C  0.96633023  0.40591568  0.44967032     0.05900
C4727       C  0.95146362  0.39318215  0.45257718    -0.10000
C4728       C  0.95047244  0.38276824  0.46929627    -0.11600
C4729       C  0.96453390  0.38477415  0.48307916    -0.01400
C4730       C  0.97977736  0.39699053  0.47969234    -0.10500
C4731       C  0.96720039  0.41756049  0.43257378     0.05900
H4732       H  0.94039443  0.39172924  0.44216681     0.07900
H4733       H  0.93855988  0.37349491  0.47160953     0.11300
H4734       H  0.99081770  0.39886969  0.49006393     0.11600
H4735       H  0.99229743  0.41713249  0.46101557     0.07900
C4736       C  0.96924950  0.43720661  0.43403408    -0.11200
C4737       C  0.97170549  0.44815270  0.41786516    -0.10500
C4738       C  0.97247847  0.43950933  0.40009139    -0.01400
C4739       C  0.96994771  0.41988557  0.39865518    -0.11600
C4740       C  0.96718050  0.40900284  0.41479024    -0.10000
H4741       H  0.96921874  0.44400256  0.44771918     0.07900
H4742       H  0.97363419  0.46324327  0.41931261     0.11600
H4743       H  0.97039835  0.41290566  0.38507370     0.11300
H4744       H  0.96571890  0.39384424  0.41346396     0.07900
C4745       C  0.83448628  0.63404433  0.55666691    -0.11200
C4746       C  0.82616720  0.63917372  0.57388433     0.05900
C4747       C  0.82270644  0.62519913  0.58751677    -0.10000
C4748       C  0.82776766  0.60647871  0.58410397    -0.11600
C4749       C  0.83639842  0.60142241  0.56700943    -0.01400
C4750       C  0.83956418  0.61534672  0.55326159    -0.10500
C4751       C  0.82160226  0.65912788  0.57783457     0.05900
H4752       H  0.81653060  0.62883321  0.60101099     0.07900
H4753       H  0.82529432  0.59605276  0.59500185     0.11300
H4754       H  0.84615243  0.61183629  0.53993075     0.11600
H4755       H  0.83708519  0.64451422  0.54584038     0.07900
C4756       C  0.83445332  0.67345646  0.57311255    -0.11200
C4757       C  0.83055087  0.69222221  0.57759155    -0.10500
C4758       C  0.81372867  0.69698511  0.58687787    -0.01400
C4759       C  0.80070112  0.68270063  0.59124331    -0.11600
C4760       C  0.80461308  0.66394210  0.58677554    -0.10000
H4761       H  0.84776229  0.67008688  0.56641996     0.07900
H4762       H  0.84089798  0.70292960  0.57417568     0.11600
H4763       H  0.78760315  0.68596925  0.59838896     0.11300
H4764       H  0.79437500  0.65318119  0.59035276     0.07900
C4765       C  0.73949596  0.52636694  0.50897615    -0.11200
C4766       C  0.75624707  0.53211125  0.49991128     0.05900
C4767       C  0.75525093  0.53805738  0.48099904    -0.10000
C4768       C  0.73802452  0.53852283  0.47154153    -0.11600
C4769       C  0.72132557  0.53354097  0.48088919    -0.01400
C4770       C  0.72217430  0.52736782  0.49964509    -0.10500
C4771       C  0.77445109  0.53292465  0.51036891     0.05900
H4772       H  0.76764955  0.54300613  0.47360547     0.07900
H4773       H  0.73766085  0.54353780  0.45711084     0.11300
H4774       H  0.70945058  0.52329805  0.50706478     0.11600
H4775       H  0.73968138  0.52122454  0.52334461     0.07900
C4776       C  0.77464321  0.53715402  0.52975047    -0.11200
C4777       C  0.79162879  0.53895918  0.53943215    -0.10500
C4778       C  0.80887402  0.53706290  0.52992429    -0.01400
C4779       C  0.80887504  0.53276230  0.51063500    -0.11600
C4780       C  0.79182682  0.53043563  0.50099985    -0.10000
H4781       H  0.76170226  0.53969301  0.53742875     0.07900
H4782       H  0.79126316  0.54253757  0.55428237     0.11600
H4783       H  0.82203499  0.53112822  0.50304851     0.11300
H4784       H  0.79231844  0.52676376  0.48619792     0.07900
C4785       C  0.88759208  0.46709826  0.56626036    -0.11200
C4786       C  0.90084745  0.46420889  0.55181203     0.05900
C4787       C  0.90317028  0.47811152  0.53790710    -0.10000
C4788       C  0.89259756  0.49470198  0.53855048    -0.11600
C4789       C  0.87956424  0.49776937  0.55318378    -0.01400
C4790       C  0.87707788  0.48375572  0.56697386    -0.10500
C4791       C  0.91188625  0.44653000  0.55091778     0.05900
H4792       H  0.91307537  0.47607561  0.52645140     0.07900
H4793       H  0.89486031  0.50525909  0.52773375     0.11300
H4794       H  0.86725702  0.48579865  0.57849602     0.11600
H4795       H  0.88561044  0.45660125  0.57718991     0.07900
C4796       C  0.93131287  0.44689517  0.54696917    -0.11200
C4797       C  0.94143693  0.43006189  0.54510467    -0.10500
C4798       C  0.93220900  0.41263181  0.54688313    -0.01400
C4799       C  0.91289431  0.41231216  0.55124631    -0.11600
C4800       C  0.90285916  0.42909292  0.55335924    -0.10000
H4801       H  0.93861456  0.46020154  0.54520577     0.07900
H4802       H  0.95630769  0.43067001  0.54168665     0.11600
H4803       H  0.90545670  0.39904841  0.55275316     0.11300
H4804       H  0.88788673  0.42843008  0.55628357     0.07900
C4805       C  0.96468947  0.55839905  0.62097599    -0.11200
C4806       C  0.94968417  0.57070691  0.62455989     0.05900
C4807       C  0.95074069  0.58326094  0.63985819    -0.10000
C4808       C  0.96691336  0.58379667  0.65114049    -0.11600
C4809       C  0.98196996  0.57147177  0.64745847    -0.01400
C4810       C  0.98060058  0.55867339  0.63238164    -0.10500
C4811       C  0.93274133  0.56967069  0.61265842     0.05900
H4812       H  0.93919636  0.59280789  0.64285409     0.07900
H4813       H  0.96769641  0.59385409  0.66260775     0.11300
H4814       H  0.99204410  0.54910357  0.62908163     0.11600
H4815       H  0.96400594  0.54841351  0.60942824     0.07900
C4816       C  0.93435371  0.56986584  0.59290590    -0.11200
C4817       C  0.91855279  0.56666356  0.58162003    -0.10500
C4818       C  0.90100901  0.56294052  0.58997942    -0.01400
C4819       C  0.89935961  0.56331941  0.60974263    -0.11600
C4820       C  0.91507998  0.56677405  0.62098507    -0.10000
H4821       H  0.94792258  0.57213030  0.58625390     0.07900
H4822       H  0.92017614  0.56648631  0.56643230     0.11600
H4823       H  0.88595823  0.56059950  0.61655476     0.11300
H4824       H  0.91361000  0.56639566  0.63618925     0.07900
C4825       C  0.93127862  0.71964393  0.91457308    -0.11200
C4826       C  0.93697553  0.70700220  0.90030664     0.05900
C4827       C  0.94505860  0.68968626  0.90550151    -0.10000
C4828       C  0.94756658  0.68518251  0.92440886    -0.11600
C4829       C  0.94169546  0.69768536  0.93857313    -0.01400
C4830       C  0.93341507  0.71490450  0.93359334    -0.10500
C4831       C  0.93378508  0.71134840  0.88010359     0.05900
H4832       H  0.94911331  0.67937836  0.89499200     0.07900
H4833       H  0.95379761  0.67168636  0.92797903     0.11300
H4834       H  0.92895528  0.72478681  0.94436119     0.11600
H4835       H  0.92526553  0.73323367  0.91106807     0.07900
C4836       C  0.91754221  0.72118336  0.87452900    -0.11200
C4837       C  0.91386091  0.72428809  0.85550829    -0.10500
C4838       C  0.92611662  0.71730127  0.84162123    -0.01400
C4839       C  0.94244473  0.70761853  0.84703493    -0.11600
C4840       C  0.94638397  0.70487701  0.86614133    -0.10000
H4841       H  0.90732101  0.72599802  0.88479877     0.07900
H4842       H  0.90104978  0.73164587  0.85163433     0.11600
H4843       H  0.95216083  0.70226926  0.83652387     0.11300
H4844       H  0.95924348  0.69759884  0.86994823     0.07900
C4845       C  0.98082196  0.76134427  0.00839294    -0.11200
C4846       C  0.99961389  0.76251913  0.00230237     0.05900
C4847       C  0.00879294  0.74599325  0.99622647    -0.10000
C4848       C  0.99920393  0.72877986  0.99571291    -0.11600
C4849       C  0.98024170  0.72774289  0.00124907    -0.01400
C4850       C  0.97124128  0.74413959  0.00789385    -0.10500
C4851       C  0.00947233  0.78097241  0.00163274     0.05900
H4852       H  0.02321126  0.74648638  0.99124376     0.07900
H4853       H  0.00647451  0.71641213  0.99043762     0.11300
H4854       H  0.95663250  0.74378550  0.01230433     0.11600
H4855       H  0.97347674  0.77377038  0.01341104     0.07900
C4856       C  0.00021184  0.79726206  0.99508176    -0.11200
C4857       C  0.00999926  0.81430930  0.99312867    -0.10500
C4858       C  0.02922601  0.81534793  0.99773611    -0.01400
C4859       C  0.03826974  0.79920417  0.00486195    -0.11600
C4860       C  0.02852808  0.78223084  0.00678871    -0.10000
H4861       H  0.98554055  0.79668252  0.99083610     0.07900
H4862       H  0.00268738  0.82649230  0.98759324     0.11600
H4863       H  0.05307675  0.79954559  0.00865922     0.11300
H4864       H  0.03594202  0.77003801  0.01217273     0.07900
C4865       C  0.85676224  0.58480790  0.18443334    -0.11200
C4866       C  0.86913915  0.58905169  0.19934475     0.05900
C4867       C  0.86176235  0.59670280  0.21604461    -0.10000
C4868       C  0.84249104  0.60034867  0.21769070    -0.11600
C4869       C  0.83016023  0.59644037  0.20266389    -0.01400
C4870       C  0.83745653  0.58845532  0.18608083    -0.10500
C4871       C  0.88971627  0.58592447  0.19726184     0.05900
H4872       H  0.87090828  0.59987183  0.22784916     0.07900
H4873       H  0.83727859  0.60642636  0.23070145     0.11300
H4874       H  0.82831918  0.58539436  0.17424094     0.11600
H4875       H  0.86208226  0.57911304  0.17129581     0.07900
C4876       C  0.89647561  0.56958879  0.18835919    -0.11200
C4877       C  0.91574066  0.56717607  0.18522296    -0.10500
C4878       C  0.92871263  0.58107919  0.19085691    -0.01400
C4879       C  0.92205018  0.59714291  0.20034377    -0.11600
C4880       C  0.90272466  0.59952695  0.20355020    -0.10000
H4881       H  0.88682565  0.55872672  0.18365571     0.07900
H4882       H  0.92041921  0.55458856  0.17793728     0.11600
H4883       H  0.93169913  0.60810651  0.20480345     0.11300
H4884       H  0.89790529  0.61233048  0.21034729     0.07900
C4885       C  0.99575484  0.54775027  0.25463288    -0.11200
C4886       C  0.00124373  0.52867527  0.25450101     0.05900
C4887       C  0.00502380  0.51996164  0.23702773    -0.10000
C4888       C  0.00224561  0.52973699  0.22014165    -0.11600
C4889       C  0.99625138  0.54856607  0.22044700    -0.01400
C4890       C  0.99353243  0.55763002  0.23780675    -0.10500
C4891       C  0.00138488  0.51763229  0.27234985     0.05900
H4892       H  0.00979901  0.50547889  0.23632433     0.07900
H4893       H  0.00466984  0.52257099  0.20686653     0.11300
H4894       H  0.98879106  0.57215224  0.23836944     0.11600
H4895       H  0.99230054  0.55492124  0.26765076     0.07900
C4896       C  0.00516765  0.52641414  0.28978071    -0.11200
C4897       C  0.00269051  0.51660328  0.30668919    -0.10500
C4898       C  0.99704410  0.49767329  0.30644169    -0.01400
C4899       C  0.99428520  0.48855438  0.28913601    -0.11600
C4900       C  0.99617064  0.49847472  0.27228079    -0.10000
H4901       H  0.00973462  0.54096482  0.29043821     0.07900
H4902       H  0.00513962  0.52379375  0.31994322     0.11600
H4903       H  0.98979512  0.47394929  0.28866609     0.11300
H4904       H  0.99271018  0.49125460  0.25929903     0.07900
C4905       C  0.96365797  0.63670755  0.11226614    -0.11200
C4906       C  0.96156441  0.62771243  0.09480376     0.05900
C4907       C  0.96205860  0.60791357  0.09389420    -0.10000
C4908       C  0.96516842  0.59726909  0.11014194    -0.11600
C4909       C  0.96802410  0.60629308  0.12750337    -0.01400
C4910       C  0.96696361  0.62608271  0.12848467    -0.10500
C4911       C  0.96006962  0.63890486  0.07736373     0.05900
H4912       H  0.96030046  0.60070804  0.08053791     0.07900
H4913       H  0.96589300  0.58204558  0.10901949     0.11300
H4914       H  0.96903372  0.63338610  0.14173925     0.11600
H4915       H  0.96343637  0.65195881  0.11323845     0.07900
C4916       C  0.94725748  0.65395543  0.07587757    -0.11200
C4917       C  0.94560744  0.66395382  0.05892983    -0.10500
C4918       C  0.95698429  0.65917695  0.04343097    -0.01400
C4919       C  0.97022997  0.64454460  0.04527033    -0.11600
C4920       C  0.97168230  0.63446673  0.06201558    -0.10000
H4921       H  0.93821788  0.65761923  0.08763759     0.07900
H4922       H  0.93530477  0.67517871  0.05785983     0.11600
H4923       H  0.97920913  0.64051447  0.03358306     0.11300
H4924       H  0.98189984  0.62314359  0.06298085     0.07900
C4925       C  0.17378358  0.63287079  0.07404534    -0.11200
C4926       C  0.19233528  0.63844393  0.07813437     0.05900
C4927       C  0.20629898  0.62439443  0.08020277    -0.10000
C4928       C  0.20168891  0.60526036  0.07833010    -0.11600
C4929       C  0.18320442  0.60001102  0.07384999    -0.01400
C4930       C  0.16935827  0.61392158  0.07167055    -0.10500
C4931       C  0.19668299  0.65878015  0.08093378     0.05900
H4932       H  0.22078984  0.62814898  0.08312171     0.07900
H4933       H  0.21255770  0.59464869  0.07995173     0.11300
H4934       H  0.15492406  0.61006254  0.06849243     0.11600
H4935       H  0.16250832  0.64310022  0.07299215     0.07900
C4936       C  0.18670368  0.67281453  0.07096632    -0.11200
C4937       C  0.18938186  0.69192271  0.07502089    -0.10500
C4938       C  0.20239458  0.69739827  0.08881478    -0.01400
C4939       C  0.21296220  0.68347049  0.09818247    -0.11600
C4940       C  0.21004700  0.66439824  0.09440014    -0.10000
H4941       H  0.17666374  0.66906546  0.06011494     0.07900
H4942       H  0.18122359  0.70238106  0.06744551     0.11600
H4943       H  0.22311072  0.68727008  0.10893424     0.11300
H4944       H  0.21779736  0.65409390  0.10256854     0.07900
C4945       C  0.27976030  0.53137938  0.01936866    -0.11200
C4946       C  0.26335304  0.52608303  0.00954834     0.05900
C4947       C  0.26488329  0.52129060  0.99037333    -0.10000
C4948       C  0.28223280  0.52247079  0.98108304    -0.11600
C4949       C  0.29847281  0.52844757  0.99075011    -0.01400
C4950       C  0.29712326  0.53252700  0.01007945    -0.10500
C4951       C  0.24462622  0.52673125  0.01902208     0.05900
H4952       H  0.25260547  0.51686813  0.98246478     0.07900
H4953       H  0.28281222  0.51916038  0.96618182     0.11300
H4954       H  0.30935815  0.53723057  0.01789771     0.11600
H4955       H  0.27907199  0.53541260  0.03407942     0.07900
C4956       C  0.24272540  0.52149530  0.03805229    -0.11200
C4957       C  0.22563967  0.52410033  0.04752742    -0.10500
C4958       C  0.21002691  0.53196240  0.03818786    -0.01400
C4959       C  0.21161124  0.53632866  0.01892818    -0.11600
C4960       C  0.22872857  0.53376813  0.00945311    -0.10000
H4961       H  0.25456319  0.51568320  0.04573647     0.07900
H4962       H  0.22483253  0.52043888  0.06233800     0.11600
H4963       H  0.19983202  0.54239005  0.01134030     0.11300
H4964       H  0.22971583  0.53811358  0.99484531     0.07900
C4965       C  0.08589838  0.57163130  0.10008499    -0.11200
C4966       C  0.08648641  0.57110284  0.11988271     0.05900
C4967       C  0.10376045  0.56784974  0.12892962    -0.10000
C4968       C  0.11998105  0.56414755  0.11830650    -0.11600
C4969       C  0.11920223  0.56384441  0.09847130    -0.01400
C4970       C  0.10210857  0.56813300  0.08948011    -0.10500
C4971       C  0.06876118  0.57208681  0.13083199     0.05900
H4972       H  0.10451155  0.56728769  0.14417771     0.07900
H4973       H  0.13300614  0.56101974  0.12562366     0.11300
H4974       H  0.10109010  0.56813379  0.07423970     0.11600
H4975       H  0.07273448  0.57427978  0.09281732     0.07900
C4976       C  0.06674673  0.58420410  0.14640855    -0.11200
C4977       C  0.04959530  0.58504006  0.15626972    -0.10500
C4978       C  0.03443326  0.57346362  0.15089112    -0.01400
C4979       C  0.03676163  0.56106473  0.13559424    -0.11600
C4980       C  0.05365383  0.56047320  0.12563870    -0.10000
H4981       H  0.07828416  0.59324869  0.15067294     0.07900
H4982       H  0.04816756  0.59472440  0.16799417     0.11600
H4983       H  0.02535959  0.55199237  0.13102821     0.11300
H4984       H  0.05496622  0.55080910  0.11387235     0.07900
C4985       C  0.81381834  0.42090143  0.93850655    -0.11200
C4986       C  0.82048359  0.40819382  0.95221549     0.05900
C4987       C  0.83053595  0.41517110  0.96774068    -0.10000
C4988       C  0.83438254  0.43437678  0.96924062    -0.11600
C4989       C  0.82823227  0.44700921  0.95525574    -0.01400
C4990       C  0.81765448  0.44015981  0.94002105    -0.10500
C4991       C  0.81795206  0.38764680  0.94970412     0.05900
H4992       H  0.83559225  0.40574369  0.97864413     0.07900
H4993       H  0.84247351  0.43927412  0.98122560     0.11300
H4994       H  0.81271983  0.44960076  0.92907212     0.11600
H4995       H  0.80622030  0.41588536  0.92625384     0.07900
C4996       C  0.80105169  0.38047249  0.94237207    -0.11200
C4997       C  0.79947118  0.36137866  0.93800064    -0.10500
C4998       C  0.81474443  0.34909354  0.94093508    -0.01400
C4999       C  0.83127841  0.35603243  0.94922809    -0.11600
C5000       C  0.83289220  0.37517192  0.95352717    -0.10000
H5001       H  0.78919725  0.38970149  0.93963565     0.07900
H5002       H  0.78647343  0.35635652  0.93176337     0.11600
H5003       H  0.84326779  0.34686846  0.95156982     0.11300
H5004       H  0.84616345  0.38033973  0.95900889     0.07900
C5005       C  0.77576083  0.51662359  0.01299735    -0.11200
C5006       C  0.75897100  0.51195448  0.00342736     0.05900
C5007       C  0.76005649  0.50774454  0.98404204    -0.10000
C5008       C  0.77743483  0.50763026  0.97470820    -0.11600
C5009       C  0.79417351  0.51127080  0.98460827    -0.01400
C5010       C  0.79316818  0.51597436  0.00377177    -0.10500
C5011       C  0.74069367  0.51047340  0.01385906     0.05900
H5012       H  0.74762349  0.50378536  0.97615912     0.07900
H5013       H  0.77786542  0.50379152  0.95992552     0.11300
H5014       H  0.80587681  0.51902194  0.01166217     0.11600
H5015       H  0.77556832  0.52057499  0.02773203     0.07900
C5016       C  0.74051401  0.50491838  0.03292164    -0.11200
C5017       C  0.72358271  0.50301672  0.04273173    -0.10500
C5018       C  0.70627860  0.50607991  0.03367923    -0.01400
C5019       C  0.70622646  0.51144559  0.01463101    -0.11600
C5020       C  0.72326908  0.51387323  0.00487878    -0.10000
H5021       H  0.75342901  0.50151579  0.04027300     0.07900
H5022       H  0.72402381  0.49851125  0.05732897     0.11600
H5023       H  0.69303858  0.51390118  0.00734815     0.11300
H5024       H  0.72272722  0.51845285  0.99033263     0.07900
C5025       C  0.87924294  0.58097796  0.94910733    -0.11200
C5026       C  0.88202272  0.58857670  0.96719880     0.05900
C5027       C  0.87416611  0.57944523  0.98288561    -0.10000
C5028       C  0.86438032  0.56257425  0.98067620    -0.11600
C5029       C  0.86196046  0.55466417  0.96270072    -0.01400
C5030       C  0.86905403  0.56419292  0.94684196    -0.10500
C5031       C  0.89376519  0.60549873  0.97014323     0.05900
H5032       H  0.87626390  0.58498808  0.99696771     0.07900
H5033       H  0.85910687  0.55541808  0.99311494     0.11300
H5034       H  0.86755070  0.55818673  0.93287824     0.11600
H5035       H  0.88517767  0.58788143  0.93683148     0.07900
C5036       C  0.91230627  0.60621865  0.96322757    -0.11200
C5037       C  0.92405938  0.62138217  0.96785876    -0.10500
C5038       C  0.91731307  0.63615186  0.97922984    -0.01400
C5039       C  0.89859455  0.63558847  0.98570103    -0.11600
C5040       C  0.88698714  0.62034701  0.98131253    -0.10000
H5041       H  0.91785468  0.59477239  0.95475806     0.07900
H5042       H  0.93838270  0.62155757  0.96256746     0.11600
H5043       H  0.89298621  0.64680412  0.99443310     0.11300
H5044       H  0.87272887  0.62003964  0.98678835     0.07900
C5045       C  0.05902628  0.35723760  0.16893277    -0.11200
C5046       C  0.06157236  0.34267905  0.15567979     0.05900
C5047       C  0.06850186  0.32518782  0.16182228    -0.10000
C5048       C  0.07353307  0.32251399  0.18061907    -0.11600
C5049       C  0.07170140  0.33725069  0.19374610    -0.01400
C5050       C  0.06404475  0.35454047  0.18783305    -0.10500
C5051       C  0.05803636  0.34594523  0.13534510     0.05900
H5052       H  0.07027345  0.31361587  0.15200841     0.07900
H5053       H  0.07922163  0.30895632  0.18478645     0.11300
H5054       H  0.06251594  0.36614357  0.19765029     0.11600
H5055       H  0.05383775  0.37092570  0.16455201     0.07900
C5056       C  0.04222739  0.35621685  0.12932847    -0.11200
C5057       C  0.03953178  0.36001237  0.11018183    -0.10500
C5058       C  0.05264638  0.35368765  0.09669792    -0.01400
C5059       C  0.06820283  0.34303467  0.10267610    -0.11600
C5060       C  0.07087098  0.33921003  0.12179904    -0.10000
H5061       H  0.03200437  0.36138005  0.13943643     0.07900
H5062       H  0.02737771  0.36825275  0.10598882     0.11600
H5063       H  0.07857706  0.33805190  0.09263219     0.11300
H5064       H  0.08332360  0.33145859  0.12604052     0.07900
C5065       C  0.97229833  0.26923905  0.02468806    -0.11200
C5066       C  0.99165152  0.27121142  0.02088379     0.05900
C5067       C  0.00214110  0.25499503  0.01615917    -0.10000
C5068       C  0.99385160  0.23714371  0.01665887    -0.11600
C5069       C  0.97476613  0.23517961  0.02131029    -0.01400
C5070       C  0.96390983  0.25140181  0.02472549    -0.10500
C5071       C  0.00125274  0.28969918  0.02344897     0.05900
H5072       H  0.01693045  0.25601590  0.01253408     0.07900
H5073       H  0.00242198  0.22485046  0.01367007     0.11300
H5074       H  0.94912792  0.25021886  0.02838168     0.11600
H5075       H  0.96379657  0.28131888  0.02854948     0.07900
C5076       C  0.99212058  0.30692727  0.01946635    -0.11200
C5077       C  0.00116469  0.32416776  0.02300006    -0.10500
C5078       C  0.01958370  0.32438490  0.03017352    -0.01400
C5079       C  0.02869245  0.30725948  0.03399090    -0.11600
C5080       C  0.01959316  0.29017459  0.03089791    -0.10000
H5081       H  0.97805087  0.30710268  0.01357902     0.07900
H5082       H  0.99392390  0.33725881  0.01989513     0.11600
H5083       H  0.04279606  0.30707736  0.03984239     0.11300
H5084       H  0.02686894  0.27732992  0.03479199     0.07900
C5085       C  0.08296232  0.45025948  0.06117655    -0.11200
C5086       C  0.10262139  0.44823271  0.06264769     0.05900
C5087       C  0.11056189  0.43013987  0.06211540    -0.10000
C5088       C  0.09912275  0.41438989  0.05929569    -0.11600
C5089       C  0.07951471  0.41644069  0.05717811    -0.01400
C5090       C  0.07147050  0.43446285  0.05859140    -0.10500
C5091       C  0.11490058  0.46502933  0.06334689     0.05900
H5092       H  0.12568276  0.42826477  0.06309615     0.07900
H5093       H  0.10569202  0.40062339  0.05836064     0.11300
H5094       H  0.05641361  0.43641620  0.05701886     0.11600
H5095       H  0.07654732  0.46412057  0.06169812     0.07900
C5096       C  0.11215240  0.47963631  0.05032010    -0.11200
C5097       C  0.12367460  0.49552169  0.05061779    -0.10500
C5098       C  0.13809536  0.49726701  0.06409670    -0.01400
C5099       C  0.14102189  0.48255295  0.07704737    -0.11600
C5100       C  0.12959315  0.46644784  0.07656002    -0.10000
H5101       H  0.10112529  0.47869911  0.03979991     0.07900
H5102       H  0.12099344  0.50664195  0.04048582     0.11600
H5103       H  0.15197800  0.48357857  0.08762201     0.11300
H5104       H  0.13196479  0.45527498  0.08671138     0.07900
C5105       C  0.10788071  0.44985261  0.82793338    -0.11200
C5106       C  0.12176028  0.46258596  0.83410373     0.05900
C5107       C  0.11627669  0.47874305  0.84412637    -0.10000
C5108       C  0.09729719  0.48196717  0.84816994    -0.11600
C5109       C  0.08344310  0.46904556  0.84233810    -0.01400
C5110       C  0.08889356  0.45304043  0.83203133    -0.10500
C5111       C  0.14191801  0.45876951  0.83039224     0.05900
H5112       H  0.12667958  0.48888161  0.84883137     0.07900
H5113       H  0.09351086  0.49445976  0.85610993     0.11300
H5114       H  0.07853573  0.44280967  0.82742799     0.11600
H5115       H  0.11176348  0.43717207  0.82034385     0.07900
C5116       C  0.15545902  0.46117135  0.84467156    -0.11200
C5117       C  0.17432524  0.45644723  0.84142341    -0.10500
C5118       C  0.17990731  0.44923596  0.82385262    -0.01400
C5119       C  0.16643886  0.44739286  0.80943786    -0.11600
C5120       C  0.14765273  0.45210755  0.81267495    -0.10000
H5121       H  0.15134872  0.46614482  0.85851885     0.07900
H5122       H  0.18440521  0.45792232  0.85279000     0.11600
H5123       H  0.17035760  0.44201714  0.79568296     0.11300
H5124       H  0.13756080  0.45042626  0.80134400     0.07900
C5125       C  0.02146609  0.53215350  0.79096557    -0.11200
C5126       C  0.01649825  0.52167145  0.77486246     0.05900
C5127       C  0.01211502  0.50246743  0.77695199    -0.10000
C5128       C  0.01331824  0.49375772  0.79458193    -0.11600
C5129       C  0.01903001  0.50401572  0.81056031    -0.01400
C5130       C  0.02277567  0.52339599  0.80863988    -0.10500
C5131       C  0.01687957  0.53042661  0.75580802     0.05900
H5132       H  0.00797246  0.49410174  0.76486500     0.07900
H5133       H  0.01023950  0.47882529  0.79558093     0.11300
H5134       H  0.02721762  0.53167444  0.82067965     0.11600
H5135       H  0.02504836  0.54695745  0.78976855     0.07900
C5136       C  0.00966236  0.54864012  0.75283164    -0.11200
C5137       C  0.01110434  0.55721511  0.73510349    -0.10500
C5138       C  0.01982601  0.54777404  0.71997252    -0.01400
C5139       C  0.02657974  0.52936573  0.72282281    -0.11600
C5140       C  0.02513393  0.52079702  0.74054167    -0.10000
H5141       H  0.00303590  0.55631006  0.76426495     0.07900
H5142       H  0.00573602  0.57141180  0.73335131     0.11600
H5143       H  0.03355261  0.52180434  0.71152484     0.11300
H5144       H  0.03105350  0.50684355  0.74245971     0.07900
C5145       C  0.92605400  0.48775331  0.93080580    -0.11200
C5146       C  0.92565171  0.48420657  0.91130445     0.05900
C5147       C  0.90821911  0.48247447  0.90216813    -0.10000
C5148       C  0.89147216  0.48505826  0.91220017    -0.11600
C5149       C  0.89185782  0.48913880  0.93160573    -0.01400
C5150       C  0.90928511  0.49005165  0.94091155    -0.10500
C5151       C  0.94337359  0.48332249  0.90036688     0.05900
H5152       H  0.90757565  0.47981379  0.88713841     0.07900
H5153       H  0.87820927  0.48415355  0.90469926     0.11300
H5154       H  0.90997340  0.49315088  0.95585231     0.11600
H5155       H  0.93937287  0.48896081  0.93816671     0.07900
C5156       C  0.95703294  0.49742720  0.90268657    -0.11200
C5157       C  0.97389365  0.49670291  0.89260622    -0.10500
C5158       C  0.97754462  0.48174244  0.88011131    -0.01400
C5159       C  0.96371652  0.46778732  0.87750219    -0.11600
C5160       C  0.94670008  0.46864179  0.88747380    -0.10000
H5161       H  0.95463417  0.50905291  0.91231132     0.07900
H5162       H  0.98425964  0.50767064  0.89494689     0.11600
H5163       H  0.96618578  0.45605158  0.86803870     0.11300
H5164       H  0.93632474  0.45761531  0.88546623     0.07900
C5165       C  0.04289009  0.44541343  0.94039781    -0.11200
C5166       C  0.04562976  0.42579272  0.93952441     0.05900
C5167       C  0.04694562  0.41699124  0.92186239    -0.10000
C5168       C  0.04471918  0.42752510  0.90534307    -0.11600
C5169       C  0.04148290  0.44708633  0.90621669    -0.01400
C5170       C  0.04099493  0.45600081  0.92388035    -0.10500
C5171       C  0.04581140  0.41444917  0.95702001     0.05900
H5172       H  0.04895234  0.40187228  0.92087338     0.07900
H5173       H  0.04523955  0.42031932  0.89188207     0.11300
H5174       H  0.03848782  0.47103750  0.92494907     0.11600
H5175       H  0.04194503  0.45249695  0.95390367     0.07900
C5176       C  0.06008813  0.40115660  0.96053486    -0.11200
C5177       C  0.06023611  0.39090796  0.97744977    -0.10500
C5178       C  0.04595074  0.39364556  0.99093173    -0.01400
C5179       C  0.03141686  0.40655934  0.98703917    -0.11600
C5180       C  0.03140632  0.41689454  0.97033087    -0.10000
H5181       H  0.07133043  0.39905269  0.95040595     0.07900
H5182       H  0.07165638  0.38112697  0.98011349     0.11600
H5183       H  0.02018387  0.40900381  0.99710035     0.11300
H5184       H  0.02008978  0.42683594  0.96777599     0.07900
loop_ 
_geom_bond_atom_site_label_1 
_geom_bond_atom_site_label_2 
_geom_bond_distance 
_geom_bond_site_symmetry_2 
_ccdc_geom_bond_type 
O1            V9   1.908       .  S
O1           C11   1.267       .  A
O2            V9   1.905       .  S
O2           C12   1.266       .  A
O3            V9   1.890       .  S
O3           C13   1.262       .  A
O4            V9   1.889       .  S
O4           C14   1.263   1_455  A
O5           V10   1.905       .  S
O5           C14   1.266   1_455  A
O6           V10   1.901       .  S
O6           C13   1.266       .  A
O7           V10   1.893       .  S
O7           C12   1.263       .  A
O8           V10   1.894       .  S
O8           C11   1.264       .  A
V9           V10   2.086       .  T
C11        C5129   1.482       .  S
C12        C5169   1.476       .  S
C13        C5109   1.475       .  S
C14        C5158   1.477       .  S
O15          V23   1.910       .  S
O15          C25   1.266       .  A
O16          V23   1.908       .  S
O16          C26   1.267       .  A
O17          V23   1.886       .  S
O17          C27   1.262       .  A
O18          V23   1.891       .  S
O18          C28   1.262       .  A
O19          V24   1.903       .  S
O19          C28   1.266       .  A
O20          V24   1.909       .  S
O20          C27   1.267       .  A
O21          V24   1.883       .  S
O21          C26   1.261       .  A
O22          V24   1.883       .  S
O22          C25   1.261       .  A
V23          V24   2.087       .  T
C25        C5078   1.471       .  S
C26        C5089   1.473       .  S
C27        C5178   1.478   1_554  S
C28        C5058   1.476       .  S
O29          V37   1.902       .  S
O29          C39   1.266       .  A
O30          V37   1.906       .  S
O30          C40   1.267       .  A
O31          V37   1.881       .  S
O31          C41   1.260       .  A
O32          V37   1.884       .  S
O32          C42   1.261       .  A
O33          V38   1.902       .  S
O33          C42   1.266       .  A
O34          V38   1.910       .  S
O34          C41   1.267       .  A
O35          V38   1.891       .  S
O35          C40   1.262       .  A
O36          V38   1.896       .  S
O36          C39   1.263       .  A
V37          V38   2.087       .  T
C39        C5009   1.475       .  S
C40        C5149   1.475       .  S
C41        C5029   1.470       .  S
C42        C4989   1.472       .  S
O43          V51   1.905       .  S
O43          C53   1.267       .  A
O44          V51   1.902       .  S
O44          C54   1.266       .  A
O45          V51   1.881       .  S
O45          C55   1.260       .  A
O46          V51   1.883       .  S
O46          C56   1.261       .  A
O47          V52   1.909       .  S
O47          C56   1.267       .  A
O48          V52   1.909       .  S
O48          C55   1.266       .  A
O49          V52   1.897       .  S
O49          C54   1.264       .  A
O50          V52   1.895       .  S
O50          C53   1.264       .  A
V51          V52   2.086       .  T
C53        C4958   1.481       .  S
C54        C4969   1.478       .  S
C55        C4929   1.464       .  S
C56        C5098   1.476       .  S
O57          V65   1.902       .  S
O57          C67   1.265       .  A
O58          V65   1.901       .  S
O58          C68   1.266       .  A
O59          V65   1.883   1_455  S
O59          C69   1.261       .  A
O60          V65   1.888       .  S
O60          C70   1.262       .  A
O61          V66   1.909       .  S
O61          C70   1.267       .  A
O62          V66   1.914   1_455  S
O62          C69   1.268       .  A
O63          V66   1.885       .  S
O63          C68   1.261       .  A
O64          V66   1.886       .  S
O64          C67   1.261       .  A
V65          V66   2.087       .  T
C67        C4889   1.468       .  S
C68        C4909   1.470       .  S
C69        C4978   1.478       .  S
C70        C4878   1.479       .  S
O71          V79   1.906       .  S
O71          C81   1.267       .  A
O72          V79   1.905       .  S
O72          C82   1.266       .  A
O73          V79   1.875       .  S
O73          C83   1.259       .  A
O74          V79   1.879   1_554  S
O74          C84   1.260       .  A
O75          V80   1.907   1_554  S
O75          C84   1.267       .  A
O76          V80   1.907       .  S
O76          C83   1.267       .  A
O77          V80   1.889       .  S
O77          C82   1.262       .  A
O78          V80   1.889   1_554  S
O78          C81   1.262   1_554  A
V79          V80   2.087       .  T
C81        C4849   1.478   1_556  S
C82        C5038   1.475       .  S
C83        C4829   1.464       .  S
C84        C4918   1.472       .  S
O85          V93   1.906       .  S
O85          C95   1.266       .  A
O86          V93   1.904       .  S
O86          C96   1.266       .  A
O87          V93   1.890       .  S
O87          C97   1.263       .  A
O88          V93   1.891       .  S
O88          C98   1.263       .  A
O89          V94   1.897       .  S
O89          C98   1.265       .  A
O90          V94   1.902       .  S
O90          C97   1.266       .  A
O91          V94   1.884       .  S
O91          C96   1.261       .  A
O92          V94   1.887       .  S
O92          C95   1.262       .  A
V93          V94   2.087       .  T
C95        C4778   1.472       .  S
C96        C4818   1.472       .  S
C97        C4789   1.476       .  S
C98        C4749   1.473       .  S
O99         V107   1.905       .  S
O99         C109   1.267       .  A
O100        V107   1.905       .  S
O100        C110   1.266       .  A
O101        V107   1.881       .  S
O101        C111   1.260       .  A
O102        V107   1.880       .  S
O102        C112   1.261       .  A
O103        V108   1.904       .  S
O103        C112   1.266       .  A
O104        V108   1.902       .  S
O104        C111   1.265       .  A
O105        V108   1.889       .  S
O105        C110   1.262       .  A
O106        V108   1.888       .  S
O106        C109   1.262       .  A
V107        V108   2.085       .  T
C109       C4718   1.476       .  S
C110       C4798   1.473       .  S
C111       C4689   1.462       .  S
C112       C4729   1.470       .  S
O113        V121   1.899       .  S
O113        C123   1.265       .  A
O114        V121   1.901       .  S
O114        C124   1.266       .  A
O115        V121   1.882   1_455  S
O115        C125   1.260       .  A
O116        V121   1.887       .  S
O116        C126   1.262       .  A
O117        V122   1.902       .  S
O117        C126   1.266       .  A
O118        V122   1.908   1_455  S
O118        C125   1.266       .  A
O119        V122   1.883       .  S
O119        C124   1.261       .  A
O120        V122   1.888       .  S
O120        C123   1.262       .  A
V121        V122   2.088       .  T
C123       C4898   1.466       .  S
C124       C4738   1.468       .  S
C125       C4669   1.468       .  S
C126       C4649   1.474       .  S
O127        V135   1.905       .  S
O127        C137   1.267       .  A
O128        V135   1.907       .  S
O128        C138   1.267       .  A
O129        V135   1.883       .  S
O129        C139   1.260       .  A
O130        V135   1.887       .  S
O130        C140   1.262       .  A
O131        V136   1.902       .  S
O131        C140   1.265       .  A
O132        V136   1.902       .  S
O132        C139   1.266       .  A
O133        V136   1.885       .  S
O133        C138   1.261       .  A
O134        V136   1.886       .  S
O134        C137   1.262       .  A
V135        V136   2.086       .  T
C137       C4618   1.475       .  S
C138       C4678   1.472       .  S
C139       C4589   1.465       .  S
C140       C4629   1.466       .  S
O141        V149   1.908       .  S
O141        C151   1.267       .  A
O142        V149   1.910       .  S
O142        C152   1.268       .  A
O143        V149   1.877       .  S
O143        C153   1.260       .  A
O144        V149   1.879       .  S
O144        C154   1.260   1_455  A
O145        V150   1.906       .  S
O145        C154   1.266   1_455  A
O146        V150   1.902       .  S
O146        C153   1.266       .  A
O147        V150   1.895       .  S
O147        C152   1.263       .  A
O148        V150   1.896       .  S
O148        C151   1.264       .  A
V149        V150   2.086       .  T
C151       C5138   1.482       .  S
C152       C4569   1.482       .  S
C153       C4558   1.467       .  S
C154       C4809   1.471       .  S
O155        V163   1.908       .  S
O155        C165   1.267       .  A
O156        V163   1.908       .  S
O156        C166   1.267       .  A
O157        V163   1.887       .  S
O157        C167   1.262       .  A
O158        V163   1.889       .  S
O158        C168   1.262       .  A
O159        V164   1.914       .  S
O159        C168   1.269       .  A
O160        V164   1.918       .  S
O160        C167   1.269       .  A
O161        V164   1.882       .  S
O161        C166   1.261       .  A
O162        V164   1.889       .  S
O162        C165   1.262       .  A
V163        V164   2.085       .  T
C165       C4529   1.475       .  S
C166       C4638   1.473       .  S
C167       C4578   1.485       .  S
C168       C4509   1.481       .  S
O169        V177   1.907       .  S
O169        C179   1.266       .  A
O170        V177   1.907       .  S
O170        C180   1.266       .  A
O171        V177   1.884       .  S
O171        C181   1.262       .  A
O172        V177   1.888       .  S
O172        C182   1.262       .  A
O173        V178   1.901       .  S
O173        C182   1.266       .  A
O174        V178   1.909       .  S
O174        C181   1.267       .  A
O175        V178   1.890       .  S
O175        C180   1.262       .  A
O176        V178   1.894       .  S
O176        C179   1.263       .  A
V177        V178   2.087       .  T
C179       C4449   1.476       .  S
C180       C4489   1.475       .  S
C181       C4478   1.477       .  S
C182       C4429   1.474       .  S
O183        V191   1.906       .  S
O183        C193   1.267       .  A
O184        V191   1.902       .  S
O184        C194   1.266       .  A
O185        V191   1.886       .  S
O185        C195   1.261       .  A
O186        V191   1.886       .  S
O186        C196   1.262       .  A
O187        V192   1.909       .  S
O187        C196   1.267       .  A
O188        V192   1.906       .  S
O188        C195   1.266       .  A
O189        V192   1.893       .  S
O189        C194   1.263       .  A
O190        V192   1.893       .  S
O190        C193   1.263       .  A
V191        V192   2.087       .  T
C193       C4949   1.481       .  S
C194       C4469   1.476       .  S
C195       C4389   1.472       .  S
C196       C4409   1.475       .  S
O197        V205   1.900       .  S
O197        C207   1.265   1_556  A
O198        V205   1.902       .  S
O198        C208   1.266       .  A
O199        V205   1.880   1_554  S
O199        C209   1.260       .  A
O200        V205   1.882       .  S
O200        C210   1.261       .  A
O201        V206   1.906       .  S
O201        C210   1.266       .  A
O202        V206   1.910   1_554  S
O202        C209   1.268       .  A
O203        V206   1.894       .  S
O203        C208   1.263       .  A
O204        V206   1.894   1_554  S
O204        C207   1.263       .  A
V205        V206   2.086       .  T
C207       C4349   1.471       .  S
C208       C4418   1.477       .  S
C209       C4369   1.475       .  S
C210       C4329   1.473       .  S
O211        V219   1.905       .  S
O211        C221   1.267       .  A
O212        V219   1.902       .  S
O212        C222   1.266       .  A
O213        V219   1.883       .  S
O213        C223   1.260       .  A
O214        V219   1.883       .  S
O214        C224   1.262       .  A
O215        V220   1.915       .  S
O215        C224   1.268       .  A
O216        V220   1.911       .  S
O216        C223   1.267       .  A
O217        V220   1.890       .  S
O217        C222   1.262       .  A
O218        V220   1.891       .  S
O218        C221   1.262       .  A
V219        V220   2.085       .  T
C221       C4298   1.478       .  S
C222       C4378   1.473       .  S
C223       C4278   1.467       .  S
C224       C4318   1.480       .  S
O225        V233   1.906       .  S
O225        C235   1.267       .  A
O226        V233   1.907       .  S
O226        C236   1.267       .  A
O227        V233   1.880       .  S
O227        C237   1.260       .  A
O228        V233   1.883       .  S
O228        C238   1.261       .  A
O229        V234   1.912       .  S
O229        C238   1.268       .  A
O230        V234   1.905       .  S
O230        C237   1.267       .  A
O231        V234   1.890       .  S
O231        C236   1.262       .  A
O232        V234   1.894       .  S
O232        C235   1.263       .  A
V233        V234   2.086       .  T
C235       C4229   1.482       .  S
C236       C4249   1.476       .  S
C237       C4209   1.472       .  S
C238       C4498   1.478   1_554  S
O239        V247   1.910       .  S
O239        C249   1.267       .  A
O240        V247   1.908       .  S
O240        C250   1.267       .  A
O241        V247   1.882       .  S
O241        C251   1.261       .  A
O242        V247   1.885       .  S
O242        C252   1.261       .  A
O243        V248   1.904       .  S
O243        C252   1.267       .  A
O244        V248   1.912       .  S
O244        C251   1.267       .  A
O245        V248   1.892       .  S
O245        C250   1.262       .  A
O246        V248   1.891       .  S
O246        C249   1.263       .  A
V247        V248   2.087       .  T
C249       C5018   1.477       .  S
C250       C4309   1.479       .  S
C251       C4258   1.478       .  S
C252       C4189   1.474       .  S
O253        V261   1.901       .  S
O253        C263   1.265       .  A
O254        V261   1.906       .  S
O254        C264   1.267       .  A
O255        V261   1.881       .  S
O255        C265   1.260       .  A
O256        V261   1.884       .  S
O256        C266   1.261       .  A
O257        V262   1.912       .  S
O257        C266   1.268       .  A
O258        V262   1.916       .  S
O258        C265   1.268       .  A
O259        V262   1.887       .  S
O259        C264   1.261       .  A
O260        V262   1.891       .  S
O260        C263   1.262       .  A
V261        V262   2.087       .  T
C263       C4129   1.470       .  S
C264       C4169   1.476       .  S
C265       C4158   1.474       .  S
C266       C4109   1.478       .  S
O267        V275   1.909       .  S
O267        C277   1.267       .  A
O268        V275   1.910       .  S
O268        C278   1.267       .  A
O269        V275   1.887       .  S
O269        C279   1.261       .  A
O270        V275   1.888       .  S
O270        C280   1.263       .  A
O271        V276   1.903       .  S
O271        C280   1.266       .  A
O272        V276   1.905       .  S
O272        C279   1.267       .  A
O273        V276   1.888       .  S
O273        C278   1.262       .  A
O274        V276   1.888       .  S
O274        C277   1.262       .  A
V275        V276   2.087       .  T
C277       C4289   1.477       .  S
C278       C4149   1.478       .  S
C279       C4078   1.474       .  S
C280       C4089   1.475       .  S
O281        V289   1.901       .  S
O281        C291   1.265       .  A
O282        V289   1.901       .  S
O282        C292   1.266       .  A
O283        V289   1.885       .  S
O283        C293   1.261       .  A
O284        V289   1.889       .  S
O284        C294   1.262       .  A
O285        V290   1.903       .  S
O285        C294   1.266       .  A
O286        V290   1.909       .  S
O286        C293   1.266       .  A
O287        V290   1.888       .  S
O287        C292   1.262       .  A
O288        V290   1.893       .  S
O288        C291   1.263       .  A
V289        V290   2.088       .  T
C291       C4769   1.471       .  S
C292       C4098   1.473       .  S
C293       C4049   1.472       .  S
C294       C4029   1.476       .  S
O295        V303   1.912       .  S
O295        C305   1.268       .  A
O296        V303   1.907       .  S
O296        C306   1.267       .  A
O297        V303   1.881       .  S
O297        C307   1.260       .  A
O298        V303   1.891       .  S
O298        C308   1.263       .  A
O299        V304   1.912       .  S
O299        C308   1.268       .  A
O300        V304   1.911       .  S
O300        C307   1.267       .  A
O301        V304   1.888       .  S
O301        C306   1.262       .  A
O302        V304   1.889       .  S
O302        C305   1.263       .  A
V303        V304   2.087       .  T
C305       C3989   1.482       .  S
C306       C4058   1.475       .  S
C307       C3969   1.468       .  S
C308       C4009   1.484       .  S
O309        V317   1.910       .  S
O309        C319   1.267       .  A
O310        V317   1.911       .  S
O310        C320   1.268       .  A
O311        V317   1.885       .  S
O311        C321   1.261       .  A
O312        V317   1.888       .  S
O312        C322   1.262       .  A
O313        V318   1.902       .  S
O313        C322   1.266       .  A
O314        V318   1.907       .  S
O314        C321   1.267       .  A
O315        V318   1.893       .  S
O315        C320   1.263       .  A
O316        V318   1.893       .  S
O316        C319   1.263       .  A
V317        V318   2.087       .  T
C319       C4458   1.478       .  S
C320       C4018   1.480       .  S
C321       C3958   1.475       .  S
C322       C3929   1.473       .  S
O323        V331   1.904       .  S
O323        C333   1.266       .  A
O324        V331   1.903       .  S
O324        C334   1.266       .  A
O325        V331   1.889       .  S
O325        C335   1.262       .  A
O326        V331   1.887       .  S
O326        C336   1.262       .  A
O327        V332   1.906       .  S
O327        C336   1.266       .  A
O328        V332   1.902       .  S
O328        C335   1.266       .  A
O329        V332   1.889       .  S
O329        C334   1.262       .  A
O330        V332   1.888       .  S
O330        C333   1.262       .  A
V331        V332   2.087       .  T
C333       C4609   1.476       .  S
C334       C3949   1.472       .  S
C335       C3909   1.475       .  S
C336       C4178   1.474       .  S
O337        V345   1.905       .  S
O337        C347   1.266       .  A
O338        V345   1.905       .  S
O338        C348   1.266       .  A
O339        V345   1.880       .  S
O339        C349   1.261       .  A
O340        V345   1.883       .  S
O340        C350   1.261       .  A
O341        V346   1.911       .  S
O341        C350   1.268       .  A
O342        V346   1.913       .  S
O342        C349   1.268       .  A
O343        V346   1.887       .  S
O343        C348   1.261       .  A
O344        V346   1.887       .  S
O344        C347   1.262       .  A
V345        V346   2.086       .  T
C347       C4138   1.471       .  S
C348       C3889   1.472       .  S
C349       C3869   1.478       .  S
C350       C3849   1.477       .  S
O351        V359   1.902       .  S
O351        C361   1.266       .  A
O352        V359   1.902       .  S
O352        C362   1.266       .  A
O353        V359   1.881       .  S
O353        C363   1.260       .  A
O354        V359   1.883       .  S
O354        C364   1.261       .  A
O355        V360   1.911       .  S
O355        C364   1.267       .  A
O356        V360   1.905       .  S
O356        C363   1.266       .  A
O357        V360   1.895       .  S
O357        C362   1.263       .  A
O358        V360   1.895       .  S
O358        C361   1.264       .  A
V359        V360   2.087       .  T
C361       C3809   1.480   1_565  S
C362       C3878   1.476       .  S
C363       C3789   1.471       .  S
C364       C3829   1.477       .  S
O365        V373   1.909       .  S
O365        C375   1.268       .  A
O366        V373   1.906       .  S
O366        C376   1.267       .  A
O367        V373   1.882       .  S
O367        C377   1.260       .  A
O368        V373   1.885       .  S
O368        C378   1.262       .  A
O369        V374   1.910       .  S
O369        C378   1.267       .  A
O370        V374   1.904       .  S
O370        C377   1.266       .  A
O371        V374   1.890       .  S
O371        C376   1.262       .  A
O372        V374   1.891       .  S
O372        C375   1.262       .  A
V373        V374   2.085       .  T
C375       C3998   1.481       .  S
C376       C3769   1.476       .  S
C377       C3729   1.464       .  S
C378       C3758   1.478       .  S
O379        V387   1.906   1_545  S
O379        C389   1.266       .  A
O380        V387   1.907       .  S
O380        C390   1.267       .  A
O381        V387   1.879   1_545  S
O381        C391   1.260       .  A
O382        V387   1.883       .  S
O382        C392   1.260       .  A
O383        V388   1.908   1_565  S
O383        C392   1.267       .  A
O384        V388   1.913       .  S
O384        C391   1.268       .  A
O385        V388   1.887   1_565  S
O385        C390   1.261       .  A
O386        V388   1.889       .  S
O386        C389   1.262       .  A
V387        V388   2.087   1_565  T
C389       C3709   1.474       .  S
C390       C3838   1.475       .  S
C391       C3778   1.477       .  S
C392       C3689   1.473       .  S
O393        V401   1.903       .  S
O393        C403   1.266       .  A
O394        V401   1.906       .  S
O394        C404   1.267       .  A
O395        V401   1.884       .  S
O395        C405   1.261       .  A
O396        V401   1.885       .  S
O396        C406   1.261       .  A
O397        V402   1.903       .  S
O397        C406   1.266       .  A
O398        V402   1.907       .  S
O398        C405   1.266       .  A
O399        V402   1.891       .  S
O399        C404   1.262       .  A
O400        V402   1.892       .  S
O400        C403   1.264       .  A
V401        V402   2.085       .  T
C403       C3649   1.477       .  S
C404       C3749   1.478       .  S
C405       C3678   1.469       .  S
C406       C3629   1.473       .  S
O407        V415   1.907       .  S
O407        C417   1.267       .  A
O408        V415   1.908       .  S
O408        C418   1.267       .  A
O409        V415   1.883       .  S
O409        C419   1.261       .  A
O410        V415   1.887       .  S
O410        C420   1.261       .  A
O411        V416   1.904       .  S
O411        C420   1.266       .  A
O412        V416   1.906       .  S
O412        C419   1.266       .  A
O413        V416   1.885       .  S
O413        C418   1.261       .  A
O414        V416   1.887       .  S
O414        C417   1.262       .  A
V415        V416   2.087       .  T
C417       C3609   1.477       .  S
C418       C3669   1.473       .  S
C419       C3589   1.471       .  S
C420       C3898   1.468   1_545  S
O421        V429   1.907       .  S
O421        C431   1.267       .  A
O422        V429   1.905       .  S
O422        C432   1.267       .  A
O423        V429   1.882       .  S
O423        C433   1.261       .  A
O424        V429   1.884       .  S
O424        C434   1.262       .  A
O425        V430   1.904       .  S
O425        C434   1.266       .  A
O426        V430   1.903       .  S
O426        C433   1.265       .  A
O427        V430   1.901       .  S
O427        C432   1.265       .  A
O428        V430   1.897       .  S
O428        C431   1.264       .  A
V429        V430   2.085       .  T
C431       C4238   1.483       .  S
C432       C3569   1.482       .  S
C433       C3538   1.468       .  S
C434       C3549   1.473   1_554  S
O435        V443   1.903       .  S
O435        C445   1.266       .  A
O436        V443   1.901       .  S
O436        C446   1.265       .  A
O437        V443   1.888       .  S
O437        C447   1.262       .  A
O438        V443   1.891       .  S
O438        C448   1.262       .  A
O439        V444   1.910       .  S
O439        C448   1.268       .  A
O440        V444   1.917       .  S
O440        C447   1.269       .  A
O441        V444   1.888       .  S
O441        C446   1.262       .  A
O442        V444   1.891       .  S
O442        C445   1.262       .  A
V443        V444   2.087       .  T
C445       C3498   1.471       .  S
C446       C3518   1.472       .  S
C447       C3578   1.484   1_545  S
C448       C3469   1.481       .  S
O449        V457   1.901       .  S
O449        C459   1.266       .  A
O450        V457   1.901       .  S
O450        C460   1.265       .  A
O451        V457   1.889       .  S
O451        C461   1.262       .  A
O452        V457   1.887       .  S
O452        C462   1.262       .  A
O453        V458   1.902       .  S
O453        C462   1.265       .  A
O454        V458   1.903       .  S
O454        C461   1.266       .  A
O455        V458   1.890       .  S
O455        C460   1.263       .  A
O456        V458   1.891       .  S
O456        C459   1.263       .  A
V457        V458   2.087       .  T
C459       C3658   1.476   1_565  S
C460       C3558   1.473       .  S
C461       C3449   1.474       .  S
C462       C3438   1.473       .  S
O463        V471   1.904       .  S
O463        C473   1.266       .  A
O464        V471   1.904       .  S
O464        C474   1.266       .  A
O465        V471   1.878       .  S
O465        C475   1.260       .  A
O466        V471   1.881       .  S
O466        C476   1.261       .  A
O467        V472   1.906       .  S
O467        C476   1.266       .  A
O468        V472   1.901       .  S
O468        C475   1.266       .  A
O469        V472   1.890       .  S
O469        C474   1.262       .  A
O470        V472   1.893       .  S
O470        C473   1.263       .  A
V471        V472   2.087       .  T
C473       C3818   1.479       .  S
C474       C3418   1.475       .  S
C475       C3389   1.467       .  S
C476       C3509   1.472       .  S
O477        V485   1.906       .  S
O477        C487   1.266       .  A
O478        V485   1.908       .  S
O478        C488   1.267       .  A
O479        V485   1.883   1_554  S
O479        C489   1.262       .  A
O480        V485   1.884       .  S
O480        C490   1.261       .  A
O481        V486   1.904       .  S
O481        C490   1.266       .  A
O482        V486   1.907   1_554  S
O482        C489   1.267       .  A
O483        V486   1.886       .  S
O483        C488   1.262       .  A
O484        V486   1.889   1_554  S
O484        C487   1.262   1_554  A
V485        V486   2.086       .  T
C487       C4358   1.473   1_556  S
C488       C3369   1.475       .  S
C489       C3409   1.475       .  S
C490       C3349   1.473       .  S
O491        V499   1.900       .  S
O491        C501   1.265       .  A
O492        V499   1.904   1_565  S
O492        C502   1.266       .  A
O493        V499   1.890   1_565  S
O493        C503   1.262       .  A
O494        V499   1.887       .  S
O494        C504   1.262       .  A
O495        V500   1.906       .  S
O495        C504   1.265       .  A
O496        V500   1.904   1_565  S
O496        C503   1.266       .  A
O497        V500   1.888   1_565  S
O497        C502   1.262       .  A
O498        V500   1.894       .  S
O498        C501   1.263       .  A
V499        V500   2.087       .  T
C501       C3329   1.477       .  S
C502       C3458   1.475       .  S
C503       C3318   1.477       .  S
C504       C3378   1.469       .  S
O505        V513   1.903       .  S
O505        C515   1.266       .  A
O506        V513   1.908       .  S
O506        C516   1.267       .  A
O507        V513   1.881       .  S
O507        C517   1.260   1_554  A
O508        V513   1.887       .  S
O508        C518   1.261       .  A
O509        V514   1.906       .  S
O509        C518   1.267       .  A
O510        V514   1.911       .  S
O510        C517   1.267   1_554  A
O511        V514   1.883       .  S
O511        C516   1.261       .  A
O512        V514   1.891       .  S
O512        C515   1.262       .  A
V513        V514   2.087       .  T
C515       C5069   1.472       .  S
C516       C3289   1.474       .  S
C517       C3269   1.470       .  S
C518       C3258   1.477       .  S
O519        V527   1.908       .  S
O519        C529   1.267   1_565  A
O520        V527   1.908       .  S
O520        C530   1.267       .  A
O521        V527   1.881       .  S
O521        C531   1.260       .  A
O522        V527   1.886   1_545  S
O522        C532   1.262       .  A
O523        V528   1.904       .  S
O523        C532   1.266       .  A
O524        V528   1.905   1_565  S
O524        C531   1.266       .  A
O525        V528   1.887   1_565  S
O525        C530   1.262       .  A
O526        V528   1.887       .  S
O526        C529   1.261       .  A
V527        V528   2.087   1_565  T
C529       C3338   1.476       .  S
C530       C3238   1.478       .  S
C531       C3218   1.467       .  S
C532       C3298   1.475       .  S
O533        V541   1.908       .  S
O533        C543   1.266       .  A
O534        V541   1.907       .  S
O534        C544   1.267       .  A
O535        V541   1.887       .  S
O535        C545   1.261   1_455  A
O536        V541   1.890       .  S
O536        C546   1.262       .  A
O537        V542   1.899       .  S
O537        C546   1.266       .  A
O538        V542   1.907       .  S
O538        C545   1.266   1_455  A
O539        V542   1.887       .  S
O539        C544   1.261       .  A
O540        V542   1.896       .  S
O540        C543   1.264       .  A
V541        V542   2.088       .  T
C543       C3169   1.477       .  S
C544       C3189   1.475       .  S
C545       C3229   1.468       .  S
C546       C3149   1.473       .  S
O547        V555   1.911       .  S
O547        C557   1.268       .  A
O548        V555   1.912       .  S
O548        C558   1.268       .  A
O549        V555   1.872       .  S
O549        C559   1.258       .  A
O550        V555   1.877   1_554  S
O550        C560   1.260       .  A
O551        V556   1.912   1_554  S
O551        C560   1.268       .  A
O552        V556   1.913       .  S
O552        C559   1.267       .  A
O553        V556   1.888       .  S
O553        C558   1.262       .  A
O554        V556   1.885       .  S
O554        C557   1.261       .  A
V555        V556   2.087       .  T
C557       C4858   1.479       .  S
C558       C3138   1.479       .  S
C559       C3109   1.467       .  S
C560       C3198   1.475       .  S
O561        V569   1.902       .  S
O561        C571   1.265       .  A
O562        V569   1.903       .  S
O562        C572   1.266       .  A
O563        V569   1.889       .  S
O563        C573   1.262       .  A
O564        V569   1.894       .  S
O564        C574   1.263       .  A
O565        V570   1.906       .  S
O565        C574   1.267       .  A
O566        V570   1.911       .  S
O566        C573   1.267       .  A
O567        V570   1.884       .  S
O567        C572   1.261       .  A
O568        V570   1.891       .  S
O568        C571   1.263       .  A
V569        V570   2.087       .  T
C571       C3489   1.472       .  S
C572       C3098   1.471       .  S
C573       C3129   1.474   1_545  S
C574       C3069   1.481       .  S
O575        V583   1.909       .  S
O575        C585   1.267       .  A
O576        V583   1.910       .  S
O576        C586   1.267       .  A
O577        V583   1.877       .  S
O577        C587   1.259       .  A
O578        V583   1.879   1_455  S
O578        C588   1.261       .  A
O579        V584   1.907   1_455  S
O579        C588   1.267       .  A
O580        V584   1.909       .  S
O580        C587   1.267       .  A
O581        V584   1.884       .  S
O581        C586   1.261       .  A
O582        V584   1.881       .  S
O582        C585   1.261       .  A
V583        V584   2.087       .  T
C585       C3049   1.475       .  S
C586       C3278   1.475       .  S
C587       C3029   1.469       .  S
C588       C3089   1.473       .  S
O589        V597   1.904       .  S
O589        C599   1.266       .  A
O590        V597   1.905       .  S
O590        C600   1.267       .  A
O591        V597   1.887       .  S
O591        C601   1.261   1_455  A
O592        V597   1.887       .  S
O592        C602   1.262       .  A
O593        V598   1.903       .  S
O593        C602   1.266       .  A
O594        V598   1.912   1_655  S
O594        C601   1.267       .  A
O595        V598   1.896       .  S
O595        C600   1.263       .  A
O596        V598   1.901       .  S
O596        C599   1.265       .  A
V597        V598   2.085       .  T
C599       C3178   1.482       .  S
C600       C3009   1.477       .  S
C601       C2998   1.474       .  S
C602       C2978   1.474       .  S
O603        V611   1.911       .  S
O603        C613   1.268       .  A
O604        V611   1.914       .  S
O604        C614   1.268       .  A
O605        V611   1.880       .  S
O605        C615   1.260       .  A
O606        V611   1.883       .  S
O606        C616   1.261       .  A
O607        V612   1.909       .  S
O607        C616   1.267       .  A
O608        V612   1.908       .  S
O608        C615   1.267       .  A
O609        V612   1.885       .  S
O609        C614   1.262       .  A
O610        V612   1.885       .  S
O610        C613   1.261       .  A
V611        V612   2.087       .  T
C613       C3618   1.478       .  S
C614       C2989   1.480       .  S
C615       C2929   1.473       .  S
C616       C2949   1.474   1_545  S
O617        V625   1.902       .  S
O617        C627   1.265       .  A
O618        V625   1.901       .  S
O618        C628   1.266       .  A
O619        V625   1.877       .  S
O619        C629   1.260       .  A
O620        V625   1.881       .  S
O620        C630   1.260       .  A
O621        V626   1.906       .  S
O621        C630   1.267       .  A
O622        V626   1.913       .  S
O622        C629   1.268       .  A
O623        V626   1.893       .  S
O623        C628   1.263       .  A
O624        V626   1.896       .  S
O624        C627   1.263       .  A
V625        V626   2.086       .  T
C627       C4538   1.473       .  S
C628       C2958   1.476       .  S
C629       C2909   1.476       .  S
C630       C2889   1.473       .  S
O631        V639   1.909       .  S
O631        C641   1.267       .  A
O632        V639   1.910       .  S
O632        C642   1.268       .  A
O633        V639   1.882       .  S
O633        C643   1.260       .  A
O634        V639   1.884       .  S
O634        C644   1.262       .  A
O635        V640   1.915       .  S
O635        C644   1.268       .  A
O636        V640   1.914       .  S
O636        C643   1.269       .  A
O637        V640   1.883       .  S
O637        C642   1.261       .  A
O638        V640   1.883       .  S
O638        C641   1.261       .  A
V639        V640   2.086       .  T
C641       C4709   1.476       .  S
C642       C2869   1.477       .  S
C643       C2858   1.477       .  S
C644       C3018   1.481       .  S
O645        V653   1.901   1_545  S
O645        C655   1.265       .  A
O646        V653   1.905       .  S
O646        C656   1.266       .  A
O647        V653   1.882   1_545  S
O647        C657   1.260       .  A
O648        V653   1.889       .  S
O648        C658   1.262       .  A
O649        V654   1.903   1_565  S
O649        C658   1.267       .  A
O650        V654   1.910       .  S
O650        C657   1.266       .  A
O651        V654   1.890   1_565  S
O651        C656   1.262       .  A
O652        V654   1.894       .  S
O652        C655   1.263       .  A
V653        V654   2.087   1_565  T
C655       C3718   1.472       .  S
C656       C2838   1.472       .  S
C657       C2878   1.467       .  S
C658       C2818   1.476       .  S
O659        V667   1.901       .  S
O659        C669   1.266       .  A
O660        V667   1.902       .  S
O660        C670   1.266       .  A
O661        V667   1.885       .  S
O661        C671   1.262       .  A
O662        V667   1.887   1_455  S
O662        C672   1.262       .  A
O663        V668   1.908   1_455  S
O663        C672   1.267       .  A
O664        V668   1.906       .  S
O664        C671   1.266       .  A
O665        V668   1.891       .  S
O665        C670   1.263       .  A
O666        V668   1.889       .  S
O666        C669   1.262       .  A
V667        V668   2.085       .  T
C669       C3058   1.474       .  S
C670       C2918   1.473       .  S
C671       C2789   1.471       .  S
C672       C2829   1.477       .  S
O673        V681   1.902       .  S
O673        C683   1.266       .  A
O674        V681   1.904       .  S
O674        C684   1.267       .  A
O675        V681   1.889       .  S
O675        C685   1.262       .  A
O676        V681   1.887       .  S
O676        C686   1.262       .  A
O677        V682   1.903       .  S
O677        C686   1.266       .  A
O678        V682   1.905       .  S
O678        C685   1.266       .  A
O679        V682   1.890       .  S
O679        C684   1.262       .  A
O680        V682   1.895       .  S
O680        C683   1.264       .  A
V681        V682   2.086       .  T
C683       C2729   1.478       .  S
C684       C2769   1.476       .  S
C685       C2749   1.472       .  S
C686       C4438   1.474       .  S
O687        V695   1.907       .  S
O687        C697   1.267       .  A
O688        V695   1.904       .  S
O688        C698   1.266       .  A
O689        V695   1.881       .  S
O689        C699   1.260       .  A
O690        V695   1.885       .  S
O690        C700   1.262       .  A
O691        V696   1.906       .  S
O691        C700   1.266       .  A
O692        V696   1.906       .  S
O692        C699   1.266       .  A
O693        V696   1.892       .  S
O693        C698   1.263       .  A
O694        V696   1.891       .  S
O694        C697   1.263       .  A
V695        V696   2.087       .  T
C697       C2689   1.480       .  S
C698       C2758   1.474       .  S
C699       C4838   1.467       .  S
C700       C2709   1.476       .  S
O701        V709   1.909       .  S
O701        C711   1.267       .  A
O702        V709   1.910       .  S
O702        C712   1.267       .  A
O703        V709   1.887       .  S
O703        C713   1.262       .  A
O704        V709   1.889       .  S
O704        C714   1.262       .  A
O705        V710   1.903       .  S
O705        C714   1.267       .  A
O706        V710   1.906       .  S
O706        C713   1.266       .  A
O707        V710   1.879       .  S
O707        C712   1.260       .  A
O708        V710   1.881       .  S
O708        C711   1.260       .  A
V709        V710   2.087       .  T
C711       C2629   1.473       .  S
C712       C2669   1.474       .  S
C713       C2649   1.475       .  S
C714       C3858   1.475       .  S
O715        V723   1.903       .  S
O715        C725   1.266       .  A
O716        V723   1.903       .  S
O716        C726   1.266       .  A
O717        V723   1.886       .  S
O717        C727   1.261       .  A
O718        V723   1.884       .  S
O718        C728   1.262       .  A
O719        V724   1.910       .  S
O719        C728   1.267       .  A
O720        V724   1.907       .  S
O720        C727   1.267       .  A
O721        V724   1.890       .  S
O721        C726   1.263       .  A
O722        V724   1.894       .  S
O722        C725   1.263       .  A
V723        V724   2.087       .  T
C725       C2609   1.479       .  S
C726       C2658   1.476       .  S
C727       C3309   1.477       .  S
C728       C2778   1.477       .  S
O729        V737   1.903       .  S
O729        C739   1.265       .  A
O730        V737   1.902       .  S
O730        C740   1.266       .  A
O731        V737   1.887       .  S
O731        C741   1.262       .  A
O732        V737   1.890       .  S
O732        C742   1.263       .  A
O733        V738   1.897       .  S
O733        C742   1.265       .  A
O734        V738   1.904       .  S
O734        C741   1.266       .  A
O735        V738   1.893       .  S
O735        C740   1.263       .  A
O736        V738   1.895       .  S
O736        C739   1.264       .  A
V737        V738   2.087       .  T
C739       C2578   1.475       .  S
C740       C2718   1.476       .  S
C741       C2589   1.475       .  S
C742       C4758   1.473       .  S
O743        V751   1.902       .  S
O743        C753   1.266       .  A
O744        V751   1.903       .  S
O744        C754   1.267       .  A
O745        V751   1.891       .  S
O745        C755   1.262       .  A
O746        V751   1.890       .  S
O746        C756   1.263       .  A
O747        V752   1.901       .  S
O747        C756   1.264       .  A
O748        V752   1.899       .  S
O748        C755   1.265       .  A
O749        V752   1.889       .  S
O749        C754   1.263       .  A
O750        V752   1.891       .  S
O750        C753   1.263       .  A
V751        V752   2.082       .  T
C753       C2558   1.475       .  S
C754       C2598   1.474       .  S
C755       C2798   1.468       .  S
C756       C2678   1.465       .  S
O757        V765   1.910       .  S
O757        C767   1.267       .  A
O758        V765   1.911       .  S
O758        C768   1.268       .  A
O759        V765   1.882       .  S
O759        C769   1.261       .  A
O760        V765   1.882       .  S
O760        C770   1.261       .  A
O761        V766   1.911       .  S
O761        C770   1.268       .  A
O762        V766   1.914       .  S
O762        C769   1.268       .  A
O763        V766   1.884       .  S
O763        C768   1.261       .  A
O764        V766   1.887       .  S
O764        C767   1.262       .  A
V765        V766   2.085       .  T
C767       C2489   1.475       .  S
C768       C2538   1.477       .  S
C769       C2509   1.479       .  S
C770       C2809   1.474       .  S
O771        V779   1.907       .  S
O771        C781   1.267       .  A
O772        V779   1.907       .  S
O772        C782   1.267       .  A
O773        V779   1.880       .  S
O773        C783   1.260       .  A
O774        V779   1.883       .  S
O774        C784   1.261       .  A
O775        V780   1.900       .  S
O775        C784   1.265       .  A
O776        V780   1.899       .  S
O776        C783   1.265       .  A
O777        V780   1.893       .  S
O777        C782   1.263       .  A
O778        V780   1.895       .  S
O778        C781   1.264       .  A
V779        V780   2.087       .  T
C781       C2449   1.482       .  S
C782       C2518   1.479       .  S
C783       C4549   1.466       .  S
C784       C2478   1.470       .  S
O785        V793   1.912       .  S
O785        C795   1.269       .  A
O786        V793   1.912       .  S
O786        C796   1.268       .  A
O787        V793   1.886       .  S
O787        C797   1.261       .  A
O788        V793   1.889       .  S
O788        C798   1.262       .  A
O789        V794   1.910       .  S
O789        C798   1.266       .  A
O790        V794   1.908       .  S
O790        C797   1.267       .  A
O791        V794   1.886       .  S
O791        C796   1.262       .  A
O792        V794   1.893       .  S
O792        C795   1.263       .  A
V793        V794   2.084       .  T
C795       C2389   1.483       .  S
C796       C2429   1.478       .  S
C797       C4398   1.470       .  S
C798       C2409   1.473       .  S
O799        V807   1.904       .  S
O799        C809   1.266       .  A
O800        V807   1.907       .  S
O800        C810   1.267       .  A
O801        V807   1.887       .  S
O801        C811   1.261       .  A
O802        V807   1.892       .  S
O802        C812   1.262       .  A
O803        V808   1.904       .  S
O803        C812   1.267       .  A
O804        V808   1.910       .  S
O804        C811   1.267       .  A
O805        V808   1.877       .  S
O805        C810   1.260       .  A
O806        V808   1.884       .  S
O806        C809   1.260       .  A
V807        V808   2.088       .  T
C809       C2638   1.464       .  S
C810       C2469   1.471       .  S
C811       C2438   1.470       .  S
C812       C4118   1.477       .  S
O813        V821   1.899       .  S
O813        C823   1.266       .  A
O814        V821   1.900       .  S
O814        C824   1.266       .  A
O815        V821   1.884       .  S
O815        C825   1.260       .  A
O816        V821   1.886       .  S
O816        C826   1.262       .  A
O817        V822   1.908       .  S
O817        C826   1.266       .  A
O818        V822   1.901       .  S
O818        C825   1.266       .  A
O819        V822   1.899       .  S
O819        C824   1.264       .  A
O820        V822   1.900       .  S
O820        C823   1.265       .  A
V821        V822   2.083       .  T
C823       C2698   1.480       .  S
C824       C2369   1.478       .  S
C825       C3118   1.465       .  S
C826       C2529   1.470       .  S
O827        V835   1.911       .  S
O827        C837   1.267       .  A
O828        V835   1.912       .  S
O828        C838   1.268       .  A
O829        V835   1.889       .  S
O829        C839   1.263       .  A
O830        V835   1.890       .  S
O830        C840   1.262       .  A
O831        V836   1.900       .  S
O831        C840   1.266       .  A
O832        V836   1.908       .  S
O832        C839   1.266       .  A
O833        V836   1.888       .  S
O833        C838   1.262       .  A
O834        V836   1.889       .  S
O834        C837   1.262       .  A
V835        V836   2.086       .  T
C837       C2349   1.478       .  S
C838       C2418   1.479       .  S
C839       C2378   1.479       .  S
C840       C3429   1.473       .  S
O841        V849   1.911       .  S
O841        C851   1.267       .  A
O842        V849   1.912       .  S
O842        C852   1.268       .  A
O843        V849   1.891       .  S
O843        C853   1.262       .  A
O844        V849   1.893       .  S
O844        C854   1.263       .  A
O845        V850   1.909       .  S
O845        C854   1.267       .  A
O846        V850   1.914       .  S
O846        C853   1.268       .  A
O847        V850   1.888       .  S
O847        C852   1.262       .  A
O848        V850   1.894       .  S
O848        C851   1.263       .  A
V849        V850   2.086       .  T
C851       C2298   1.478       .  S
C852       C2329   1.480       .  S
C853       C2318   1.480       .  S
C854       C4518   1.482       .  S
O855        V863   1.913       .  S
O855        C865   1.269       .  A
O856        V863   1.912       .  S
O856        C866   1.268       .  A
O857        V863   1.879       .  S
O857        C867   1.260       .  A
O858        V863   1.885       .  S
O858        C868   1.261       .  A
O859        V864   1.913       .  S
O859        C868   1.268       .  A
O860        V864   1.915       .  S
O860        C867   1.269       .  A
O861        V864   1.884       .  S
O861        C866   1.261       .  A
O862        V864   1.887       .  S
O862        C865   1.261       .  A
V863        V864   2.086       .  T
C865       C2249   1.480       .  S
C866       C2269   1.478       .  S
C867       C4069   1.478       .  S
C868       C2338   1.479       .  S
O869        V877   1.921       .  S
O869        C879   1.270       .  A
O870        V877   1.920       .  S
O870        C880   1.270       .  A
O871        V877   1.879       .  S
O871        C881   1.259       .  A
O872        V877   1.884       .  S
O872        C882   1.261       .  A
O873        V878   1.912       .  S
O873        C882   1.268       .  A
O874        V878   1.912       .  S
O874        C881   1.269       .  A
O875        V878   1.885       .  S
O875        C880   1.261       .  A
O876        V878   1.884       .  S
O876        C879   1.261       .  A
V877        V878   2.086       .  T
C879       C2398   1.485       .  S
C880       C2309   1.480       .  S
C881       C4938   1.474       .  S
C882       C2229   1.479       .  S
O883        V891   1.901       .  S
O883        C893   1.265       .  A
O884        V891   1.904       .  S
O884        C894   1.267       .  A
O885        V891   1.880       .  S
O885        C895   1.260       .  A
O886        V891   1.881       .  S
O886        C896   1.261       .  A
O887        V892   1.908       .  S
O887        C896   1.267       .  A
O888        V892   1.915       .  S
O888        C895   1.268       .  A
O889        V892   1.891       .  S
O889        C894   1.262       .  A
O890        V892   1.896       .  S
O890        C893   1.263       .  A
V891        V892   2.087       .  T
C893       C2498   1.473       .  S
C894       C2209   1.476       .  S
C895       C2278   1.471       .  S
C896       C3698   1.475       .  S
O897        V905   1.908       .  S
O897        C907   1.267       .  A
O898        V905   1.905       .  S
O898        C908   1.267       .  A
O899        V905   1.883       .  S
O899        C909   1.260       .  A
O900        V905   1.884       .  S
O900        C910   1.262       .  A
O901        V906   1.909       .  S
O901        C910   1.267       .  A
O902        V906   1.903       .  S
O902        C909   1.266       .  A
O903        V906   1.889       .  S
O903        C908   1.262       .  A
O904        V906   1.886       .  S
O904        C907   1.262       .  A
V905        V906   2.085       .  T
C907       C2178   1.478       .  S
C908       C2189   1.475       .  S
C909       C3529   1.465       .  S
C910       C2218   1.477       .  S
O911        V919   1.904       .  S
O911        C921   1.265       .  A
O912        V919   1.904       .  S
O912        C922   1.266       .  A
O913        V919   1.881       .  S
O913        C923   1.261       .  A
O914        V919   1.884       .  S
O914        C924   1.262       .  A
O915        V920   1.904       .  S
O915        C924   1.266       .  A
O916        V920   1.910       .  S
O916        C923   1.267       .  A
O917        V920   1.893       .  S
O917        C922   1.263       .  A
O918        V920   1.897       .  S
O918        C921   1.264       .  A
V919        V920   2.087       .  T
C921       C2158   1.474       .  S
C922       C2238   1.477       .  S
C923       C2198   1.476       .  S
C924       C3158   1.473       .  S
O925        V933   1.908       .  S
O925        C935   1.267       .  A
O926        V933   1.907       .  S
O926        C936   1.267       .  A
O927        V933   1.882       .  S
O927        C937   1.261       .  A
O928        V933   1.883       .  S
O928        C938   1.261       .  A
O929        V934   1.904       .  S
O929        C938   1.266       .  A
O930        V934   1.912       .  S
O930        C937   1.268       .  A
O931        V934   1.888       .  S
O931        C936   1.261       .  A
O932        V934   1.891       .  S
O932        C935   1.263       .  A
V933        V934   2.087       .  T
C935       C2098   1.476       .  S
C936       C2138   1.474       .  S
C937       C2109   1.478       .  S
C938       C3358   1.472       .  S
O939        V947   1.906       .  S
O939        C949   1.267       .  A
O940        V947   1.907       .  S
O940        C950   1.267       .  A
O941        V947   1.884       .  S
O941        C951   1.262       .  A
O942        V947   1.886       .  S
O942        C952   1.261       .  A
O943        V948   1.905       .  S
O943        C952   1.267       .  A
O944        V948   1.908       .  S
O944        C951   1.266       .  A
O945        V948   1.889       .  S
O945        C950   1.262       .  A
O946        V948   1.889       .  S
O946        C949   1.262       .  A
V947        V948   2.087       .  T
C949       C2738   1.478       .  S
C950       C2069   1.477       .  S
C951       C2049   1.475       .  S
C952       C3938   1.475       .  S
O953        V961   1.912       .  S
O953        C963   1.268       .  A
O954        V961   1.908       .  S
O954        C964   1.267       .  A
O955        V961   1.885       .  S
O955        C965   1.261       .  A
O956        V961   1.885       .  S
O956        C966   1.262       .  A
O957        V962   1.908       .  S
O957        C966   1.267       .  A
O958        V962   1.906       .  S
O958        C965   1.266       .  A
O959        V962   1.888       .  S
O959        C964   1.262       .  A
O960        V962   1.889       .  S
O960        C963   1.262       .  A
V961        V962   2.085       .  T
C963       C2029   1.482       .  S
C964       C2118   1.476       .  S
C965       C3598   1.467       .  S
C966       C2078   1.476       .  S
O967        V975   1.906       .  S
O967        C977   1.267       .  A
O968        V975   1.903       .  S
O968        C978   1.266       .  A
O969        V975   1.883       .  S
O969        C979   1.260       .  A
O970        V975   1.884       .  S
O970        C980   1.262       .  A
O971        V976   1.908       .  S
O971        C980   1.267       .  A
O972        V976   1.904       .  S
O972        C979   1.266       .  A
O973        V976   1.889       .  S
O973        C978   1.262       .  A
O974        V976   1.887       .  S
O974        C977   1.262       .  A
V975        V976   2.086       .  T
C977       C2549   1.476       .  S
C978       C2018   1.475       .  S
C979       C3038   1.464       .  S
C980       C2129   1.475       .  S
O981        V989   1.903       .  S
O981        C991   1.267       .  A
O982        V989   1.902       .  S
O982        C992   1.266       .  A
O983        V989   1.878       .  S
O983        C993   1.259       .  A
O984        V989   1.878       .  S
O984        C994   1.261       .  A
O985        V990   1.911       .  S
O985        C994   1.267       .  A
O986        V990   1.906       .  S
O986        C993   1.267       .  A
O987        V990   1.892       .  S
O987        C992   1.262       .  A
O988        V990   1.890       .  S
O988        C991   1.262       .  A
V989        V990   2.086       .  T
C991       C1969   1.476       .  S
C992       C2058   1.476       .  S
C993       C4698   1.466       .  S
C994       C1989   1.474       .  S
O995       V1003   1.904       .  S
O995       C1005   1.267       .  A
O996       V1003   1.904       .  S
O996       C1006   1.266       .  A
O997       V1003   1.883       .  S
O997       C1007   1.261       .  A
O998       V1003   1.882       .  S
O998       C1008   1.260       .  A
O999       V1004   1.903       .  S
O999       C1008   1.266       .  A
O1000      V1004   1.909       .  S
O1000      C1007   1.267       .  A
O1001      V1004   1.890       .  S
O1001      C1006   1.262       .  A
O1002      V1004   1.892       .  S
O1002      C1005   1.263       .  A
V1003      V1004   2.087       .  T
C1005      C1949   1.479       .  S
C1006      C1998   1.475       .  S
C1007      C2009   1.474       .  S
C1008      C4998   1.470       .  S
O1009      V1017   1.901       .  S
O1009      C1019   1.265       .  A
O1010      V1017   1.906       .  S
O1010      C1020   1.267       .  A
O1011      V1017   1.883       .  S
O1011      C1021   1.261       .  A
O1012      V1017   1.885       .  S
O1012      C1022   1.261       .  A
O1013      V1018   1.903       .  S
O1013      C1022   1.266       .  A
O1014      V1018   1.909       .  S
O1014      C1021   1.267       .  A
O1015      V1018   1.894       .  S
O1015      C1020   1.263       .  A
O1016      V1018   1.899       .  S
O1016      C1019   1.264       .  A
V1017      V1018   2.087       .  T
C1019      C2358   1.474       .  S
C1020      C1938   1.480       .  S
C1021      C1909   1.470       .  S
C1022      C3638   1.473       .  S
O1023      V1031   1.910       .  S
O1023      C1033   1.268       .  A
O1024      V1031   1.907       .  S
O1024      C1034   1.267       .  A
O1025      V1031   1.883       .  S
O1025      C1035   1.260       .  A
O1026      V1031   1.884       .  S
O1026      C1036   1.262       .  A
O1027      V1032   1.910       .  S
O1027      C1036   1.267       .  A
O1028      V1032   1.911       .  S
O1028      C1035   1.267       .  A
O1029      V1032   1.887       .  S
O1029      C1034   1.262       .  A
O1030      V1032   1.884       .  S
O1030      C1033   1.261       .  A
V1031      V1032   2.087       .  T
C1033      C1978   1.477       .  S
C1034      C1918   1.475       .  S
C1035      C2849   1.470       .  S
C1036      C1889   1.477       .  S
O1037      V1045   1.911       .  S
O1037      C1047   1.268       .  A
O1038      V1045   1.910       .  S
O1038      C1048   1.267       .  A
O1039      V1045   1.883       .  S
O1039      C1049   1.261       .  A
O1040      V1045   1.888       .  S
O1040      C1050   1.262       .  A
O1041      V1046   1.910       .  S
O1041      C1050   1.267       .  A
O1042      V1046   1.909       .  S
O1042      C1049   1.267       .  A
O1043      V1046   1.885       .  S
O1043      C1048   1.261       .  A
O1044      V1046   1.887       .  S
O1044      C1047   1.262       .  A
V1045      V1046   2.086       .  T
C1047      C1858   1.479       .  S
C1048      C1869   1.476       .  S
C1049      C3918   1.476       .  S
C1050      C1929   1.478       .  S
O1051      V1059   1.909       .  S
O1051      C1061   1.267       .  A
O1052      V1059   1.913       .  S
O1052      C1062   1.268       .  A
O1053      V1059   1.883       .  S
O1053      C1063   1.261       .  A
O1054      V1059   1.889       .  S
O1054      C1064   1.262       .  A
O1055      V1060   1.900       .  S
O1055      C1064   1.266       .  A
O1056      V1060   1.908       .  S
O1056      C1063   1.266       .  A
O1057      V1060   1.886       .  S
O1057      C1062   1.261       .  A
O1058      V1060   1.891       .  S
O1058      C1061   1.262       .  A
V1059      V1060   2.087       .  T
C1061      C2089   1.476       .  S
C1062      C1838   1.477       .  S
C1063      C1878   1.469       .  S
C1064      C4338   1.473       .  S
O1065      V1073   1.912       .  S
O1065      C1075   1.268       .  A
O1066      V1073   1.915       .  S
O1066      C1076   1.268       .  A
O1067      V1073   1.883       .  S
O1067      C1077   1.261       .  A
O1068      V1073   1.889       .  S
O1068      C1078   1.262       .  A
O1069      V1074   1.908       .  S
O1069      C1078   1.267       .  A
O1070      V1074   1.908       .  S
O1070      C1077   1.267       .  A
O1071      V1074   1.888       .  S
O1071      C1076   1.262       .  A
O1072      V1074   1.892       .  S
O1072      C1075   1.263       .  A
V1073      V1074   2.086       .  T
C1075      C2458   1.484       .  S
C1076      C1818   1.480       .  S
C1077      C5118   1.474       .  S
C1078      C1829   1.480       .  S
O1079      V1087   1.902       .  S
O1079      C1089   1.266       .  A
O1080      V1087   1.903       .  S
O1080      C1090   1.267       .  A
O1081      V1087   1.890       .  S
O1081      C1091   1.263       .  A
O1082      V1087   1.889       .  S
O1082      C1092   1.262       .  A
O1083      V1088   1.912       .  S
O1083      C1092   1.268       .  A
O1084      V1088   1.913       .  S
O1084      C1091   1.268       .  A
O1085      V1088   1.891       .  S
O1085      C1090   1.262       .  A
O1086      V1088   1.896       .  S
O1086      C1089   1.264       .  A
V1087      V1088   2.086       .  T
C1089      C1789   1.479       .  S
C1090      C1898   1.476       .  S
C1091      C1809   1.479       .  S
C1092      C3078   1.481       .  S
O1093      V1101   1.904       .  S
O1093      C1103   1.267       .  A
O1094      V1101   1.904       .  S
O1094      C1104   1.266       .  A
O1095      V1101   1.889       .  S
O1095      C1105   1.262       .  A
O1096      V1101   1.889       .  S
O1096      C1106   1.262       .  A
O1097      V1102   1.910       .  S
O1097      C1106   1.268       .  A
O1098      V1102   1.913       .  S
O1098      C1105   1.268       .  A
O1099      V1102   1.886       .  S
O1099      C1104   1.261       .  A
O1100      V1102   1.892       .  S
O1100      C1103   1.263       .  A
V1101      V1102   2.087       .  T
C1103      C1798   1.479       .  S
C1104      C1769   1.471       .  S
C1105      C1749   1.482       .  S
C1106      C3478   1.479       .  S
O1107      V1115   1.909       .  S
O1107      C1117   1.267       .  A
O1108      V1115   1.908       .  S
O1108      C1118   1.267       .  A
O1109      V1115   1.884       .  S
O1109      C1119   1.261       .  A
O1110      V1115   1.880       .  S
O1110      C1120   1.261       .  A
O1111      V1116   1.910       .  S
O1111      C1120   1.267       .  A
O1112      V1116   1.907       .  S
O1112      C1119   1.267       .  A
O1113      V1116   1.894       .  S
O1113      C1118   1.263       .  A
O1114      V1116   1.891       .  S
O1114      C1117   1.263       .  A
V1115      V1116   2.086       .  T
C1117      C2258   1.481       .  S
C1118      C1758   1.480       .  S
C1119      C4269   1.473       .  S
C1120      C1729   1.473       .  S
O1121      V1129   1.904       .  S
O1121      C1131   1.266       .  A
O1122      V1129   1.904       .  S
O1122      C1132   1.266       .  A
O1123      V1129   1.885       .  S
O1123      C1133   1.262       .  A
O1124      V1129   1.886       .  S
O1124      C1134   1.262       .  A
O1125      V1130   1.905       .  S
O1125      C1134   1.266       .  A
O1126      V1130   1.911       .  S
O1126      C1133   1.268       .  A
O1127      V1130   1.891       .  S
O1127      C1132   1.263       .  A
O1128      V1130   1.895       .  S
O1128      C1131   1.264       .  A
V1129      V1130   2.086       .  T
C1131      C2149   1.477       .  S
C1132      C1709   1.477       .  S
C1133      C1689   1.479       .  S
C1134      C2969   1.472       .  S
O1135      V1143   1.904       .  S
O1135      C1145   1.266       .  A
O1136      V1143   1.903       .  S
O1136      C1146   1.266       .  A
O1137      V1143   1.884       .  S
O1137      C1147   1.261       .  A
O1138      V1143   1.884       .  S
O1138      C1148   1.262       .  A
O1139      V1144   1.904       .  S
O1139      C1148   1.266       .  A
O1140      V1144   1.900       .  S
O1140      C1147   1.265       .  A
O1141      V1144   1.896       .  S
O1141      C1146   1.264       .  A
O1142      V1144   1.894       .  S
O1142      C1145   1.264       .  A
V1143      V1144   2.086       .  T
C1145      C1669   1.479       .  S
C1146      C1698   1.477       .  S
C1147      C3738   1.466       .  S
C1148      C1778   1.473       .  S
O1149      V1157   1.899       .  S
O1149      C1159   1.265       .  A
O1150      V1157   1.900       .  S
O1150      C1160   1.266       .  A
O1151      V1157   1.886       .  S
O1151      C1161   1.262       .  A
O1152      V1157   1.887       .  S
O1152      C1162   1.262       .  A
O1153      V1158   1.907       .  S
O1153      C1162   1.267       .  A
O1154      V1158   1.912       .  S
O1154      C1161   1.268       .  A
O1155      V1158   1.891       .  S
O1155      C1160   1.263       .  A
O1156      V1158   1.892       .  S
O1156      C1159   1.262       .  A
V1157      V1158   2.086       .  T
C1159      C1629   1.469       .  S
C1160      C1738   1.474       .  S
C1161      C1658   1.480       .  S
C1162      C5049   1.476       .  S
O1163      V1171   1.907       .  S
O1163      C1173   1.267       .  A
O1164      V1171   1.905       .  S
O1164      C1174   1.267       .  A
O1165      V1171   1.878       .  S
O1165      C1175   1.260       .  A
O1166      V1171   1.880       .  S
O1166      C1176   1.261       .  A
O1167      V1172   1.911       .  S
O1167      C1176   1.267       .  A
O1168      V1172   1.908       .  S
O1168      C1175   1.266       .  A
O1169      V1172   1.895       .  S
O1169      C1174   1.263       .  A
O1170      V1172   1.892       .  S
O1170      C1173   1.263       .  A
V1171      V1172   2.086       .  T
C1173      C1849   1.480       .  S
C1174      C1649   1.478       .  S
C1175      C4598   1.466       .  S
C1176      C1718   1.474       .  S
O1177      V1185   1.904       .  S
O1177      C1187   1.266       .  A
O1178      V1185   1.906       .  S
O1178      C1188   1.267       .  A
O1179      V1185   1.887       .  S
O1179      C1189   1.262       .  A
O1180      V1185   1.886       .  S
O1180      C1190   1.262       .  A
O1181      V1186   1.904       .  S
O1181      C1190   1.266       .  A
O1182      V1186   1.906       .  S
O1182      C1189   1.266       .  A
O1183      V1186   1.893       .  S
O1183      C1188   1.263       .  A
O1184      V1186   1.896       .  S
O1184      C1187   1.264       .  A
V1185      V1186   2.086       .  T
C1187      C1958   1.481       .  S
C1188      C1609   1.479       .  S
C1189      C1589   1.472       .  S
C1190      C4198   1.473       .  S
O1191      V1199   1.910       .  S
O1191      C1201   1.268       .  A
O1192      V1199   1.908       .  S
O1192      C1202   1.267       .  A
O1193      V1199   1.886       .  S
O1193      C1203   1.261       .  A
O1194      V1199   1.886       .  S
O1194      C1204   1.262       .  A
O1195      V1200   1.912       .  S
O1195      C1204   1.268       .  A
O1196      V1200   1.908       .  S
O1196      C1203   1.268       .  A
O1197      V1200   1.886       .  S
O1197      C1202   1.261       .  A
O1198      V1200   1.887       .  S
O1198      C1201   1.262       .  A
V1199      V1200   2.085       .  T
C1201      C1678   1.479       .  S
C1202      C1569   1.474       .  S
C1203      C3978   1.474       .  S
C1204      C1618   1.480       .  S
O1205      V1213   1.907       .  S
O1205      C1215   1.267       .  A
O1206      V1213   1.910       .  S
O1206      C1216   1.267       .  A
O1207      V1213   1.874       .  S
O1207      C1217   1.259       .  A
O1208      V1213   1.878       .  S
O1208      C1218   1.260       .  A
O1209      V1214   1.905       .  S
O1209      C1218   1.266       .  A
O1210      V1214   1.905       .  S
O1210      C1217   1.267       .  A
O1211      V1214   1.885       .  S
O1211      C1216   1.261       .  A
O1212      V1214   1.887       .  S
O1212      C1215   1.262       .  A
V1213      V1214   2.087       .  T
C1215      C1538   1.478       .  S
C1216      C1598   1.473       .  S
C1217      C3398   1.468       .  S
C1218      C1558   1.471       .  S
O1219      V1227   1.901       .  S
O1219      C1229   1.265       .  A
O1220      V1227   1.899       .  S
O1220      C1230   1.265       .  A
O1221      V1227   1.885       .  S
O1221      C1231   1.262       .  A
O1222      V1227   1.886       .  S
O1222      C1232   1.262       .  A
O1223      V1228   1.909       .  S
O1223      C1232   1.267       .  A
O1224      V1228   1.914       .  S
O1224      C1231   1.268       .  A
O1225      V1228   1.887       .  S
O1225      C1230   1.261       .  A
O1226      V1228   1.889       .  S
O1226      C1229   1.262       .  A
V1227      V1228   2.087       .  T
C1229      C1638   1.470       .  S
C1230      C1549   1.470       .  S
C1231      C1509   1.481       .  S
C1232      C3249   1.477       .  S
O1233      V1241   1.907       .  S
O1233      C1243   1.267       .  A
O1234      V1241   1.909       .  S
O1234      C1244   1.267       .  A
O1235      V1241   1.883       .  S
O1235      C1245   1.261       .  A
O1236      V1241   1.881       .  S
O1236      C1246   1.261       .  A
O1237      V1242   1.907       .  S
O1237      C1246   1.266       .  A
O1238      V1242   1.904       .  S
O1238      C1245   1.266       .  A
O1239      V1242   1.892       .  S
O1239      C1244   1.262       .  A
O1240      V1242   1.893       .  S
O1240      C1243   1.263       .  A
V1241      V1242   2.087       .  T
C1243      C2038   1.481       .  S
C1244      C1518   1.479       .  S
C1245      C2938   1.471       .  S
C1246      C1498   1.473       .  S
O1247      V1255   1.905       .  S
O1247      C1257   1.265       .  A
O1248      V1255   1.904       .  S
O1248      C1258   1.266       .  A
O1249      V1255   1.888       .  S
O1249      C1259   1.262       .  A
O1250      V1255   1.891       .  S
O1250      C1260   1.263       .  A
O1251      V1256   1.898       .  S
O1251      C1260   1.265       .  A
O1252      V1256   1.904       .  S
O1252      C1259   1.266       .  A
O1253      V1256   1.887       .  S
O1253      C1258   1.262       .  A
O1254      V1256   1.888       .  S
O1254      C1257   1.262       .  A
V1255      V1256   2.087       .  T
C1257      C1469   1.470       .  S
C1258      C1489   1.472       .  S
C1259      C1578   1.476       .  S
C1260      C4658   1.472       .  S
O1261      V1269   1.907       .  S
O1261      C1271   1.267       .  A
O1262      V1269   1.904       .  S
O1262      C1272   1.266       .  A
O1263      V1269   1.886       .  S
O1263      C1273   1.261       .  A
O1264      V1269   1.885       .  S
O1264      C1274   1.262       .  A
O1265      V1270   1.901       .  S
O1265      C1274   1.266       .  A
O1266      V1270   1.900       .  S
O1266      C1273   1.265       .  A
O1267      V1270   1.894       .  S
O1267      C1272   1.263       .  A
O1268      V1270   1.891       .  S
O1268      C1271   1.263       .  A
V1269      V1270   2.085       .  T
C1271      C2618   1.479       .  S
C1272      C1458   1.477       .  S
C1273      C3209   1.466       .  S
C1274      C1438   1.472       .  S
O1275      V1283   1.910       .  S
O1275      C1285   1.267       .  A
O1276      V1283   1.911       .  S
O1276      C1286   1.268       .  A
O1277      V1283   1.877       .  S
O1277      C1287   1.259       .  A
O1278      V1283   1.881       .  S
O1278      C1288   1.261       .  A
O1279      V1284   1.912       .  S
O1279      C1288   1.267       .  A
O1280      V1284   1.911       .  S
O1280      C1287   1.268       .  A
O1281      V1284   1.885       .  S
O1281      C1286   1.261       .  A
O1282      V1284   1.885       .  S
O1282      C1285   1.261       .  A
V1283      V1284   2.087       .  T
C1285      C1529   1.477       .  S
C1286      C1418   1.476       .  S
C1287      C3798   1.473       .  S
C1288      C1389   1.477       .  S
O1289      V1297   1.911       .  S
O1289      C1299   1.267       .  A
O1290      V1297   1.909       .  S
O1290      C1300   1.268       .  A
O1291      V1297   1.882       .  S
O1291      C1301   1.261       .  A
O1292      V1297   1.879       .  S
O1292      C1302   1.260       .  A
O1293      V1298   1.907       .  S
O1293      C1302   1.267       .  A
O1294      V1298   1.914       .  S
O1294      C1301   1.269       .  A
O1295      V1298   1.889       .  S
O1295      C1300   1.261       .  A
O1296      V1298   1.892       .  S
O1296      C1299   1.263       .  A
V1297      V1298   2.086       .  T
C1299      C2289   1.480       .  S
C1300      C1398   1.477       .  S
C1301      C1449   1.480       .  S
C1302      C2898   1.473       .  S
O1303      V1311   1.900       .  S
O1303      C1313   1.266       .  A
O1304      V1311   1.904       .  S
O1304      C1314   1.266       .  A
O1305      V1311   1.885       .  S
O1305      C1315   1.261       .  A
O1306      V1311   1.889       .  S
O1306      C1316   1.262       .  A
O1307      V1312   1.908       .  S
O1307      C1316   1.267       .  A
O1308      V1312   1.913       .  S
O1308      C1315   1.268       .  A
O1309      V1312   1.883       .  S
O1309      C1314   1.261       .  A
O1310      V1312   1.892       .  S
O1310      C1313   1.262       .  A
V1311      V1312   2.087       .  T
C1313      C1478   1.472       .  S
C1314      C1429   1.470       .  S
C1315      C1369   1.473       .  S
C1316      C4869   1.478       .  S
O1317      V1325   1.903       .  S
O1317      C1327   1.265       .  A
O1318      V1325   1.904       .  S
O1318      C1328   1.266       .  A
O1319      V1325   1.884       .  S
O1319      C1329   1.261       .  A
O1320      V1325   1.888       .  S
O1320      C1330   1.262       .  A
O1321      V1326   1.905       .  S
O1321      C1330   1.266       .  A
O1322      V1326   1.911       .  S
O1322      C1329   1.267       .  A
O1323      V1326   1.889       .  S
O1323      C1328   1.262       .  A
O1324      V1326   1.895       .  S
O1324      C1327   1.263       .  A
V1325      V1326   2.087       .  T
C1327      C2569   1.474       .  S
C1328      C1349   1.475       .  S
C1329      C1409   1.473       .  S
C1330      C4038   1.476       .  S
O1331      V1339   1.910       .  S
O1331      C1341   1.268       .  A
O1332      V1339   1.914       .  S
O1332      C1342   1.268       .  A
O1333      V1339   1.876       .  S
O1333      C1343   1.259       .  A
O1334      V1339   1.881       .  S
O1334      C1344   1.261       .  A
O1335      V1340   1.910       .  S
O1335      C1344   1.267       .  A
O1336      V1340   1.908       .  S
O1336      C1343   1.267       .  A
O1337      V1340   1.885       .  S
O1337      C1342   1.261       .  A
O1338      V1340   1.887       .  S
O1338      C1341   1.261       .  A
V1339      V1340   2.086       .  T
C1341      C2169   1.479       .  S
C1342      C1378   1.480       .  S
C1343      C4218   1.470       .  S
C1344      C1358   1.476       .  S
C1345      C1346   1.401       .  A
C1345      C1350   1.396       .  A
C1345      H1355   1.083       .  S
C1346      C1351   1.476       .  S
C1346      C1347   1.405       .  A
C1347      C1348   1.396       .  A
C1347      H1352   1.083       .  S
C1348      C1349   1.403       .  A
C1348      H1353   1.083       .  S
C1349      C1350   1.407       .  A
C1350      H1354   1.083       .  S
C1351      C1356   1.406       .  A
C1351      C1360   1.400       .  A
C1356      C1357   1.401       .  A
C1356      H1361   1.083       .  S
C1357      C1358   1.405       .  A
C1357      H1362   1.083       .  S
C1358      C1359   1.406       .  A
C1359      C1360   1.391       .  A
C1359      H1363   1.083       .  S
C1360      H1364   1.083       .  S
C1365      C1366   1.403       .  A
C1365      C1370   1.394       .  A
C1365      H1375   1.083       .  S
C1366      C1371   1.480       .  S
C1366      C1367   1.406       .  A
C1367      C1368   1.402       .  A
C1367      H1372   1.083       .  S
C1368      C1369   1.404       .  A
C1368      H1373   1.083       .  S
C1369      C1370   1.403       .  A
C1370      H1374   1.083       .  S
C1371      C1376   1.401       .  A
C1371      C1380   1.406       .  A
C1376      C1377   1.394       .  A
C1376      H1381   1.083       .  S
C1377      C1378   1.407       .  A
C1377      H1382   1.083       .  S
C1378      C1379   1.405       .  A
C1379      C1380   1.403       .  A
C1379      H1383   1.083       .  S
C1380      H1384   1.083       .  S
C1385      C1386   1.399       .  A
C1385      C1390   1.390       .  A
C1385      H1395   1.083       .  S
C1386      C1391   1.476       .  S
C1386      C1387   1.406       .  A
C1387      C1388   1.403       .  A
C1387      H1392   1.083       .  S
C1388      C1389   1.406       .  A
C1388      H1393   1.083       .  S
C1389      C1390   1.406       .  A
C1390      H1394   1.083       .  S
C1391      C1396   1.405       .  A
C1391      C1400   1.401       .  A
C1396      C1397   1.397       .  A
C1396      H1401   1.083       .  S
C1397      C1398   1.403       .  A
C1397      H1402   1.083       .  S
C1398      C1399   1.408       .  A
C1399      C1400   1.397       .  A
C1399      H1403   1.083       .  S
C1400      H1404   1.083       .  S
C1405      C1406   1.405       .  A
C1405      C1410   1.402       .  A
C1405      H1415   1.083       .  S
C1406      C1411   1.475       .  S
C1406      C1407   1.402       .  A
C1407      C1408   1.392       .  A
C1407      H1412   1.084       .  S
C1408      C1409   1.404       .  A
C1408      H1413   1.083       .  S
C1409      C1410   1.405       .  A
C1410      H1414   1.083       .  S
C1411      C1416   1.405       .  A
C1411      C1420   1.401       .  A
C1416      C1417   1.400       .  A
C1416      H1421   1.083       .  S
C1417      C1418   1.404       .  A
C1417      H1422   1.083       .  S
C1418      C1419   1.406       .  A
C1419      C1420   1.394       .  A
C1419      H1423   1.083       .  S
C1420      H1424   1.083       .  S
C1425      C1426   1.401       .  A
C1425      C1430   1.393       .  A
C1425      H1435   1.083       .  S
C1426      C1431   1.475       .  S
C1426      C1427   1.406       .  A
C1427      C1428   1.396       .  A
C1427      H1432   1.083       .  S
C1428      C1429   1.402       .  A
C1428      H1433   1.083       .  S
C1429      C1430   1.405       .  A
C1430      H1434   1.083       .  S
C1431      C1436   1.405       .  A
C1431      C1440   1.402       .  A
C1436      C1437   1.397       .  A
C1436      H1441   1.083       .  S
C1437      C1438   1.404       .  A
C1437      H1442   1.083       .  S
C1438      C1439   1.405       .  A
C1439      C1440   1.392       .  A
C1439      H1443   1.083       .  S
C1440      H1444   1.083       .  S
C1445      C1446   1.406       .  A
C1445      C1450   1.403       .  A
C1445      H1455   1.083       .  S
C1446      C1451   1.477       .  S
C1446      C1447   1.400       .  A
C1447      C1448   1.392       .  A
C1447      H1452   1.084       .  S
C1448      C1449   1.407       .  A
C1448      H1453   1.083       .  S
C1449      C1450   1.406       .  A
C1450      H1454   1.083       .  S
C1451      C1456   1.405       .  A
C1451      C1460   1.402       .  A
C1456      C1457   1.397       .  A
C1456      H1461   1.083       .  S
C1457      C1458   1.404       .  A
C1457      H1462   1.083       .  S
C1458      C1459   1.407       .  A
C1459      C1460   1.398       .  A
C1459      H1463   1.083       .  S
C1460      H1464   1.083       .  S
C1465      C1466   1.407       .  A
C1465      C1470   1.392       .  A
C1465      H1475   1.082       .  S
C1466      C1471   1.492       .  S
C1466      C1467   1.411       .  A
C1467      C1468   1.401       .  A
C1467      H1472   1.082       .  S
C1468      C1469   1.402       .  A
C1468      H1473   1.083       .  S
C1469      C1470   1.401       .  A
C1470      H1474   1.083       .  S
C1471      C1476   1.411       .  A
C1471      C1480   1.408       .  A
C1476      C1477   1.396       .  A
C1476      H1481   1.082       .  S
C1477      C1478   1.400       .  A
C1477      H1482   1.083       .  S
C1478      C1479   1.403       .  A
C1479      C1480   1.397       .  A
C1479      H1483   1.083       .  S
C1480      H1484   1.082       .  S
C1485      C1486   1.401       .  A
C1485      C1490   1.395       .  A
C1485      H1495   1.083       .  S
C1486      C1491   1.475       .  S
C1486      C1487   1.406       .  A
C1487      C1488   1.396       .  A
C1487      H1492   1.083       .  S
C1488      C1489   1.402       .  A
C1488      H1493   1.083       .  S
C1489      C1490   1.406       .  A
C1490      H1494   1.083       .  S
C1491      C1496   1.406       .  A
C1491      C1500   1.401       .  A
C1496      C1497   1.400       .  A
C1496      H1501   1.083       .  S
C1497      C1498   1.404       .  A
C1497      H1502   1.083       .  S
C1498      C1499   1.405       .  A
C1499      C1500   1.390       .  A
C1499      H1503   1.083       .  S
C1500      H1504   1.083       .  S
C1505      C1506   1.402       .  A
C1505      C1510   1.393       .  A
C1505      H1515   1.083       .  S
C1506      C1511   1.483       .  S
C1506      C1507   1.407       .  A
C1507      C1508   1.403       .  A
C1507      H1512   1.083       .  S
C1508      C1509   1.406       .  A
C1508      H1513   1.083       .  S
C1509      C1510   1.406       .  A
C1510      H1514   1.083       .  S
C1511      C1516   1.403       .  A
C1511      C1520   1.407       .  A
C1516      C1517   1.399       .  A
C1516      H1521   1.083       .  S
C1517      C1518   1.407       .  A
C1517      H1522   1.083       .  S
C1518      C1519   1.403       .  A
C1519      C1520   1.398       .  A
C1519      H1523   1.083       .  S
C1520      H1524   1.083       .  S
C1525      C1526   1.402       .  A
C1525      C1530   1.394   1_545  A
C1525      H1535   1.083       .  S
C1526      C1531   1.483       .  S
C1526      C1527   1.408   1_545  A
C1527      C1528   1.400       .  A
C1527      H1532   1.083       .  S
C1528      C1529   1.404       .  A
C1528      H1533   1.083       .  S
C1529      C1530   1.406       .  A
C1530      H1534   1.083       .  S
C1531      C1536   1.407       .  A
C1531      C1540   1.403       .  A
C1536      C1537   1.398       .  A
C1536      H1541   1.083       .  S
C1537      C1538   1.403       .  A
C1537      H1542   1.083       .  S
C1538      C1539   1.407       .  A
C1539      C1540   1.396       .  A
C1539      H1543   1.083       .  S
C1540      H1544   1.083       .  S
C1545      C1546   1.404       .  A
C1545      C1550   1.393       .  A
C1545      H1555   1.083       .  S
C1546      C1551   1.469       .  S
C1546      C1547   1.400       .  A
C1547      C1548   1.395       .  A
C1547      H1552   1.083       .  S
C1548      C1549   1.407       .  A
C1548      H1553   1.083       .  S
C1549      C1550   1.402       .  A
C1550      H1554   1.083       .  S
C1551      C1556   1.399       .  A
C1551      C1560   1.404       .  A
C1556      C1557   1.388       .  A
C1556      H1561   1.084       .  S
C1557      C1558   1.405       .  A
C1557      H1562   1.083       .  S
C1558      C1559   1.405       .  A
C1559      C1560   1.400       .  A
C1559      H1563   1.083       .  S
C1560      H1564   1.083       .  S
C1565      C1566   1.407       .  A
C1565      C1570   1.398       .  A
C1565      H1575   1.083       .  S
C1566      C1571   1.480       .  S
C1566      C1567   1.402       .  A
C1567      C1568   1.395       .  A
C1567      H1572   1.083       .  S
C1568      C1569   1.406       .  A
C1568      H1573   1.083       .  S
C1569      C1570   1.402       .  A
C1570      H1574   1.083       .  S
C1571      C1576   1.406       .  A
C1571      C1580   1.403       .  A
C1576      C1577   1.399       .  A
C1576      H1581   1.083       .  S
C1577      C1578   1.405       .  A
C1577      H1582   1.083       .  S
C1578      C1579   1.405       .  A
C1579      C1580   1.393       .  A
C1579      H1583   1.083       .  S
C1580      H1584   1.083       .  S
C1585      C1586   1.404       .  A
C1585      C1590   1.400       .  A
C1585      H1595   1.083       .  S
C1586      C1591   1.475       .  S
C1586      C1587   1.403       .  A
C1587      C1588   1.393       .  A
C1587      H1592   1.083       .  S
C1588      C1589   1.404       .  A
C1588      H1593   1.083       .  S
C1589      C1590   1.405       .  A
C1590      H1594   1.083       .  S
C1591      C1596   1.406       .  A
C1591      C1600   1.401       .  A
C1596      C1597   1.402       .  A
C1596      H1601   1.083       .  S
C1597      C1598   1.404       .  A
C1597      H1602   1.083       .  S
C1598      C1599   1.404       .  A
C1599      C1600   1.392       .  A
C1599      H1603   1.083       .  S
C1600      H1604   1.083       .  S
C1605      C1606   1.402       .  A
C1605      C1610   1.399       .  A
C1605      H1615   1.083       .  S
C1606      C1611   1.477       .  S
C1606      C1607   1.404       .  A
C1607      C1608   1.397       .  A
C1607      H1612   1.083       .  S
C1608      C1609   1.404       .  A
C1608      H1613   1.083       .  S
C1609      C1610   1.408       .  A
C1610      H1614   1.083       .  S
C1611      C1616   1.405       .  A
C1611      C1620   1.400       .  A
C1616      C1617   1.404       .  A
C1616      H1621   1.083       .  S
C1617      C1618   1.406       .  A
C1617      H1622   1.083       .  S
C1618      C1619   1.406       .  A
C1619      C1620   1.393       .  A
C1619      H1623   1.083       .  S
C1620      H1624   1.084       .  S
C1625      C1626   1.408       .  A
C1625      C1630   1.394       .  A
C1625      H1635   1.081   1_455  S
C1626      C1631   1.491   1_455  S
C1626      C1627   1.410       .  A
C1627      C1628   1.397       .  A
C1627      H1632   1.082       .  S
C1628      C1629   1.400       .  A
C1628      H1633   1.083       .  S
C1629      C1630   1.402       .  A
C1630      H1634   1.083       .  S
C1631      C1636   1.411       .  A
C1631      C1640   1.408       .  A
C1636      C1637   1.398       .  A
C1636      H1641   1.082       .  S
C1637      C1638   1.401       .  A
C1637      H1642   1.083       .  S
C1638      C1639   1.401       .  A
C1639      C1640   1.393       .  A
C1639      H1643   1.083       .  S
C1640      H1644   1.081   1_655  S
C1645      C1646   1.404       .  A
C1645      C1650   1.399       .  A
C1645      H1655   1.083       .  S
C1646      C1651   1.483       .  S
C1646      C1647   1.406       .  A
C1647      C1648   1.397       .  A
C1647      H1652   1.083       .  S
C1648      C1649   1.403       .  A
C1648      H1653   1.083       .  S
C1649      C1650   1.407       .  A
C1650      H1654   1.083       .  S
C1651      C1656   1.403       .  A
C1651      C1660   1.407       .  A
C1656      C1657   1.393       .  A
C1656      H1661   1.083       .  S
C1657      C1658   1.406       .  A
C1657      H1662   1.083       .  S
C1658      C1659   1.405       .  A
C1659      C1660   1.403       .  A
C1659      H1663   1.083       .  S
C1660      H1664   1.083       .  S
C1665      C1666   1.404       .  A
C1665      C1670   1.397       .  A
C1665      H1675   1.083       .  S
C1666      C1671   1.486       .  S
C1666      C1667   1.407       .  A
C1667      C1668   1.398       .  A
C1667      H1672   1.083       .  S
C1668      C1669   1.404       .  A
C1668      H1673   1.083       .  S
C1669      C1670   1.406       .  A
C1670      H1674   1.083       .  S
C1671      C1676   1.408       .  A
C1671      C1680   1.404       .  A
C1676      C1677   1.400       .  A
C1676      H1681   1.083       .  S
C1677      C1678   1.404       .  A
C1677      H1682   1.083       .  S
C1678      C1679   1.406       .  A
C1679      C1680   1.396       .  A
C1679      H1683   1.083       .  S
C1680      H1684   1.083       .  S
C1685      C1686   1.402       .  A
C1685      C1690   1.393       .  A
C1685      H1695   1.083       .  S
C1686      C1691   1.481       .  S
C1686      C1687   1.407       .  A
C1687      C1688   1.402       .  A
C1687      H1692   1.083       .  S
C1688      C1689   1.406       .  A
C1688      H1693   1.083       .  S
C1689      C1690   1.406       .  A
C1690      H1694   1.083       .  S
C1691      C1696   1.403       .  A
C1691      C1700   1.406       .  A
C1696      C1697   1.398       .  A
C1696      H1701   1.083       .  S
C1697      C1698   1.406       .  A
C1697      H1702   1.083       .  S
C1698      C1699   1.404       .  A
C1699      C1700   1.397       .  A
C1699      H1703   1.083       .  S
C1700      H1704   1.083       .  S
C1705      C1706   1.405       .  A
C1705      C1710   1.396       .  A
C1705      H1715   1.083       .  S
C1706      C1711   1.475       .  S
C1706      C1707   1.401       .  A
C1707      C1708   1.397       .  A
C1707      H1712   1.083       .  S
C1708      C1709   1.407       .  A
C1708      H1713   1.083       .  S
C1709      C1710   1.404       .  A
C1710      H1714   1.083       .  S
C1711      C1716   1.400       .  A
C1711      C1720   1.406       .  A
C1716      C1717   1.390       .  A
C1716      H1721   1.084       .  S
C1717      C1718   1.406       .  A
C1717      H1722   1.083       .  S
C1718      C1719   1.404       .  A
C1719      C1720   1.402       .  A
C1719      H1723   1.083       .  S
C1720      H1724   1.083       .  S
C1725      C1726   1.406       .  A
C1725      C1730   1.403       .  A
C1725      H1735   1.083       .  S
C1726      C1731   1.472       .  S
C1726      C1727   1.399       .  A
C1727      C1728   1.388       .  A
C1727      H1732   1.084       .  S
C1728      C1729   1.405       .  A
C1728      H1733   1.083       .  S
C1729      C1730   1.405       .  A
C1730      H1734   1.083       .  S
C1731      C1736   1.401       .  A
C1731      C1740   1.404       .  A
C1736      C1737   1.397       .  A
C1736      H1741   1.083       .  S
C1737      C1738   1.407       .  A
C1737      H1742   1.083       .  S
C1738      C1739   1.403       .  A
C1739      C1740   1.394       .  A
C1739      H1743   1.083       .  S
C1740      H1744   1.083       .  S
C1745      C1746   1.407       .  A
C1745      C1750   1.402       .  A
C1745      H1755   1.083       .  S
C1746      C1751   1.484       .  S
C1746      C1747   1.403       .  A
C1747      C1748   1.395       .  A
C1747      H1752   1.083       .  S
C1748      C1749   1.407       .  A
C1748      H1753   1.083       .  S
C1749      C1750   1.405       .  A
C1750      H1754   1.083       .  S
C1751      C1756   1.407       .  A
C1751      C1760   1.404       .  A
C1756      C1757   1.399       .  A
C1756      H1761   1.083       .  S
C1757      C1758   1.404       .  A
C1757      H1762   1.083       .  S
C1758      C1759   1.407       .  A
C1759      C1760   1.398       .  A
C1759      H1763   1.083       .  S
C1760      H1764   1.083       .  S
C1765      C1766   1.400       .  A
C1765      C1770   1.395       .  A
C1765      H1775   1.083       .  S
C1766      C1771   1.471       .  S
C1766      C1767   1.404       .  A
C1767      C1768   1.395       .  A
C1767      H1772   1.083       .  S
C1768      C1769   1.402       .  A
C1768      H1773   1.083       .  S
C1769      C1770   1.406       .  A
C1770      H1774   1.083       .  S
C1771      C1776   1.404       .  A
C1771      C1780   1.400       .  A
C1776      C1777   1.400       .  A
C1776      H1781   1.083       .  S
C1777      C1778   1.406       .  A
C1777      H1782   1.083       .  S
C1778      C1779   1.405       .  A
C1779      C1780   1.391       .  A
C1779      H1783   1.083       .  S
C1780      H1784   1.084       .  S
C1785      C1786   1.407   1_556  A
C1785      C1790   1.398       .  A
C1785      H1795   1.083       .  S
C1786      C1791   1.485       .  S
C1786      C1787   1.405       .  A
C1787      C1788   1.397   1_554  A
C1787      H1792   1.083       .  S
C1788      C1789   1.406       .  A
C1788      H1793   1.083       .  S
C1789      C1790   1.405       .  A
C1790      H1794   1.083       .  S
C1791      C1796   1.407       .  A
C1791      C1800   1.405       .  A
C1796      C1797   1.397       .  A
C1796      H1801   1.083       .  S
C1797      C1798   1.403       .  A
C1797      H1802   1.083       .  S
C1798      C1799   1.407       .  A
C1799      C1800   1.397       .  A
C1799      H1803   1.083       .  S
C1800      H1804   1.083       .  S
C1805      C1806   1.405       .  A
C1805      C1810   1.404       .  A
C1805      H1815   1.083       .  S
C1806      C1811   1.481       .  S
C1806      C1807   1.403       .  A
C1807      C1808   1.395       .  A
C1807      H1812   1.083       .  S
C1808      C1809   1.405       .  A
C1808      H1813   1.083       .  S
C1809      C1810   1.406       .  A
C1810      H1814   1.083       .  S
C1811      C1816   1.406       .  A
C1811      C1820   1.402       .  A
C1816      C1817   1.404       .  A
C1816      H1821   1.083       .  S
C1817      C1818   1.406       .  A
C1817      H1822   1.083       .  S
C1818      C1819   1.406       .  A
C1819      C1820   1.394       .  A
C1819      H1823   1.083       .  S
C1820      H1824   1.083       .  S
C1825      C1826   1.407       .  A
C1825      C1830   1.399       .  A
C1825      H1835   1.083       .  S
C1826      C1831   1.483       .  S
C1826      C1827   1.403       .  A
C1827      C1828   1.396       .  A
C1827      H1832   1.083       .  S
C1828      C1829   1.407       .  A
C1828      H1833   1.083       .  S
C1829      C1830   1.404       .  A
C1830      H1834   1.083       .  S
C1831      C1836   1.403       .  A
C1831      C1840   1.408       .  A
C1836      C1837   1.395       .  A
C1836      H1841   1.083       .  S
C1837      C1838   1.406       .  A
C1837      H1842   1.083       .  S
C1838      C1839   1.404       .  A
C1839      C1840   1.401       .  A
C1839      H1843   1.083       .  S
C1840      H1844   1.083       .  S
C1845      C1846   1.404       .  A
C1845      C1850   1.397       .  A
C1845      H1855   1.083       .  S
C1846      C1851   1.486       .  S
C1846      C1847   1.408       .  A
C1847      C1848   1.399       .  A
C1847      H1852   1.083       .  S
C1848      C1849   1.404       .  A
C1848      H1853   1.083       .  S
C1849      C1850   1.407       .  A
C1850      H1854   1.083       .  S
C1851      C1856   1.408       .  A
C1851      C1860   1.403       .  A
C1856      C1857   1.400       .  A
C1856      H1861   1.083       .  S
C1857      C1858   1.404       .  A
C1857      H1862   1.083       .  S
C1858      C1859   1.407       .  A
C1859      C1860   1.396       .  A
C1859      H1863   1.083       .  S
C1860      H1864   1.083       .  S
C1865      C1866   1.401       .  A
C1865      C1870   1.393       .  A
C1865      H1875   1.083       .  S
C1866      C1871   1.475       .  S
C1866      C1867   1.405       .  A
C1867      C1868   1.400       .  A
C1867      H1872   1.083       .  S
C1868      C1869   1.405       .  A
C1868      H1873   1.083       .  S
C1869      C1870   1.406       .  A
C1870      H1874   1.083       .  S
C1871      C1876   1.402       .  A
C1871      C1880   1.404       .  A
C1876      C1877   1.393       .  A
C1876      H1881   1.083       .  S
C1877      C1878   1.403       .  A
C1877      H1882   1.083       .  S
C1878      C1879   1.404       .  A
C1879      C1880   1.400       .  A
C1879      H1883   1.083       .  S
C1880      H1884   1.083       .  S
C1885      C1886   1.405       .  A
C1885      C1890   1.403       .  A
C1885      H1895   1.083       .  S
C1886      C1891   1.474       .  S
C1886      C1887   1.400       .  A
C1887      C1888   1.390       .  A
C1887      H1892   1.084       .  S
C1888      C1889   1.405       .  A
C1888      H1893   1.083       .  S
C1889      C1890   1.406       .  A
C1890      H1894   1.083       .  S
C1891      C1896   1.401       .  A
C1891      C1900   1.404       .  A
C1896      C1897   1.398       .  A
C1896      H1901   1.083       .  S
C1897      C1898   1.408       .  A
C1897      H1902   1.083       .  S
C1898      C1899   1.403       .  A
C1899      C1900   1.395       .  A
C1899      H1903   1.083       .  S
C1900      H1904   1.083       .  S
C1905      C1906   1.404       .  A
C1905      C1910   1.400       .  A
C1905      H1915   1.083       .  S
C1906      C1911   1.472       .  S
C1906      C1907   1.401       .  A
C1907      C1908   1.393       .  A
C1907      H1912   1.084       .  S
C1908      C1909   1.404       .  A
C1908      H1913   1.083       .  S
C1909      C1910   1.404       .  A
C1910      H1914   1.083       .  S
C1911      C1916   1.404       .  A
C1911      C1920   1.400       .  A
C1916      C1917   1.399       .  A
C1916      H1921   1.083       .  S
C1917      C1918   1.405       .  A
C1917      H1922   1.083       .  S
C1918      C1919   1.406       .  A
C1919      C1920   1.394       .  A
C1919      H1923   1.083       .  S
C1920      H1924   1.083       .  S
C1925      C1926   1.403       .  A
C1925      C1930   1.394       .  A
C1925      H1935   1.083       .  S
C1926      C1931   1.482       .  S
C1926      C1927   1.407       .  A
C1927      C1928   1.401       .  A
C1927      H1932   1.083       .  S
C1928      C1929   1.404       .  A
C1928      H1933   1.083       .  S
C1929      C1930   1.406       .  A
C1930      H1934   1.083       .  S
C1931      C1936   1.406       .  A
C1931      C1940   1.403       .  A
C1936      C1937   1.398       .  A
C1936      H1941   1.083       .  S
C1937      C1938   1.405       .  A
C1937      H1942   1.083       .  S
C1938      C1939   1.407       .  A
C1939      C1940   1.397       .  A
C1939      H1943   1.083       .  S
C1940      H1944   1.083       .  S
C1945      C1946   1.405       .  A
C1945      C1950   1.398       .  A
C1945      H1955   1.083   1_556  S
C1946      C1951   1.487   1_556  S
C1946      C1947   1.408       .  A
C1947      C1948   1.398       .  A
C1947      H1952   1.082       .  S
C1948      C1949   1.403       .  A
C1948      H1953   1.083       .  S
C1949      C1950   1.407       .  A
C1950      H1954   1.083       .  S
C1951      C1956   1.405       .  A
C1951      C1960   1.408       .  A
C1956      C1957   1.397       .  A
C1956      H1961   1.083       .  S
C1957      C1958   1.406       .  A
C1957      H1962   1.083       .  S
C1958      C1959   1.405       .  A
C1959      C1960   1.399       .  A
C1959      H1963   1.083       .  S
C1960      H1964   1.083       .  S
C1965      C1966   1.403       .  A
C1965      C1970   1.397   1_455  A
C1965      H1975   1.083       .  S
C1966      C1971   1.481       .  S
C1966      C1967   1.407   1_455  A
C1967      C1968   1.396       .  A
C1967      H1972   1.083       .  S
C1968      C1969   1.403       .  A
C1968      H1973   1.083       .  S
C1969      C1970   1.407       .  A
C1970      H1974   1.083       .  S
C1971      C1976   1.407       .  A
C1971      C1980   1.402       .  A
C1976      C1977   1.400       .  A
C1976      H1981   1.083       .  S
C1977      C1978   1.404       .  A
C1977      H1982   1.083       .  S
C1978      C1979   1.406       .  A
C1979      C1980   1.393       .  A
C1979      H1983   1.083       .  S
C1980      H1984   1.083       .  S
C1985      C1986   1.399       .  A
C1985      C1990   1.388       .  A
C1985      H1995   1.084       .  S
C1986      C1991   1.473       .  S
C1986      C1987   1.405       .  A
C1987      C1988   1.403       .  A
C1987      H1992   1.083       .  S
C1988      C1989   1.405       .  A
C1988      H1993   1.083       .  S
C1989      C1990   1.405       .  A
C1990      H1994   1.083       .  S
C1991      C1996   1.405       .  A
C1991      C2000   1.400       .  A
C1996      C1997   1.396       .  A
C1996      H2001   1.083       .  S
C1997      C1998   1.403       .  A
C1997      H2002   1.083       .  S
C1998      C1999   1.408       .  A
C1999      C2000   1.396       .  A
C1999      H2003   1.083       .  S
C2000      H2004   1.083       .  S
C2005      C2006   1.407       .  A
C2005      C2010   1.401       .  A
C2005      H2015   1.083       .  S
C2006      C2011   1.477       .  S
C2006      C2007   1.401       .  A
C2007      C2008   1.391       .  A
C2007      H2012   1.083       .  S
C2008      C2009   1.405       .  A
C2008      H2013   1.083       .  S
C2009      C2010   1.404       .  A
C2010      H2014   1.083       .  S
C2011      C2016   1.405       .  A
C2011      C2020   1.402       .  A
C2016      C2017   1.397       .  A
C2016      H2021   1.083       .  S
C2017      C2018   1.404       .  A
C2017      H2022   1.083       .  S
C2018      C2019   1.406       .  A
C2019      C2020   1.395       .  A
C2019      H2023   1.083       .  S
C2020      H2024   1.083       .  S
C2025      C2026   1.408       .  A
C2025      C2030   1.400       .  A
C2025      H2035   1.083       .  S
C2026      C2031   1.487       .  S
C2026      C2027   1.403       .  A
C2027      C2028   1.397       .  A
C2027      H2032   1.083       .  S
C2028      C2029   1.407       .  A
C2028      H2033   1.083       .  S
C2029      C2030   1.404       .  A
C2030      H2034   1.083       .  S
C2031      C2036   1.404       .  A
C2031      C2040   1.408       .  A
C2036      C2037   1.397       .  A
C2036      H2041   1.083       .  S
C2037      C2038   1.407       .  A
C2037      H2042   1.083       .  S
C2038      C2039   1.404       .  A
C2039      C2040   1.399       .  A
C2039      H2043   1.083       .  S
C2040      H2044   1.083       .  S
C2045      C2046   1.405       .  A
C2045      C2050   1.402       .  A
C2045      H2055   1.083       .  S
C2046      C2051   1.476       .  S
C2046      C2047   1.401       .  A
C2047      C2048   1.390       .  A
C2047      H2052   1.083       .  S
C2048      C2049   1.405       .  A
C2048      H2053   1.083       .  S
C2049      C2050   1.406       .  A
C2050      H2054   1.083       .  S
C2051      C2056   1.405       .  A
C2051      C2060   1.402       .  A
C2056      C2057   1.394       .  A
C2056      H2061   1.083       .  S
C2057      C2058   1.403       .  A
C2057      H2062   1.083       .  S
C2058      C2059   1.408       .  A
C2059      C2060   1.398       .  A
C2059      H2063   1.083       .  S
C2060      H2064   1.083       .  S
C2065      C2066   1.400       .  A
C2065      C2070   1.395       .  A
C2065      H2075   1.083       .  S
C2066      C2071   1.475       .  S
C2066      C2067   1.405       .  A
C2067      C2068   1.399       .  A
C2067      H2072   1.083       .  S
C2068      C2069   1.404       .  A
C2068      H2073   1.083       .  S
C2069      C2070   1.407       .  A
C2070      H2074   1.083       .  S
C2071      C2076   1.405       .  A
C2071      C2080   1.400       .  A
C2076      C2077   1.401       .  A
C2076      H2081   1.083       .  S
C2077      C2078   1.405       .  A
C2077      H2082   1.083       .  S
C2078      C2079   1.406       .  A
C2079      C2080   1.393       .  A
C2079      H2083   1.083       .  S
C2080      H2084   1.083       .  S
C2085      C2086   1.408       .  A
C2085      C2090   1.396       .  A
C2085      H2095   1.082       .  S
C2086      C2091   1.495       .  S
C2086      C2087   1.411       .  A
C2087      C2088   1.400       .  A
C2087      H2092   1.082       .  S
C2088      C2089   1.401       .  A
C2088      H2093   1.083       .  S
C2089      C2090   1.403       .  A
C2090      H2094   1.083       .  S
C2091      C2096   1.412       .  A
C2091      C2100   1.407       .  A
C2096      C2097   1.401       .  A
C2096      H2101   1.082       .  S
C2097      C2098   1.402       .  A
C2097      H2102   1.083       .  S
C2098      C2099   1.404       .  A
C2099      C2100   1.395       .  A
C2099      H2103   1.083       .  S
C2100      H2104   1.082       .  S
C2105      C2106   1.401       .  A
C2105      C2110   1.392       .  A
C2105      H2115   1.083       .  S
C2106      C2111   1.479       .  S
C2106      C2107   1.407       .  A
C2107      C2108   1.402       .  A
C2107      H2112   1.083       .  S
C2108      C2109   1.405       .  A
C2108      H2113   1.083       .  S
C2109      C2110   1.407       .  A
C2110      H2114   1.083       .  S
C2111      C2116   1.401       .  A
C2111      C2120   1.407       .  A
C2116      C2117   1.395       .  A
C2116      H2121   1.083       .  S
C2117      C2118   1.407       .  A
C2117      H2122   1.083       .  S
C2118      C2119   1.403       .  A
C2119      C2120   1.398       .  A
C2119      H2123   1.083       .  S
C2120      H2124   1.083       .  S
C2125      C2126   1.401       .  A
C2125      C2130   1.391       .  A
C2125      H2135   1.083       .  S
C2126      C2131   1.479       .  S
C2126      C2127   1.407       .  A
C2127      C2128   1.402       .  A
C2127      H2132   1.083       .  S
C2128      C2129   1.405       .  A
C2128      H2133   1.083       .  S
C2129      C2130   1.405       .  A
C2130      H2134   1.083       .  S
C2131      C2136   1.407       .  A
C2131      C2140   1.402       .  A
C2136      C2137   1.397       .  A
C2136      H2141   1.083       .  S
C2137      C2138   1.402       .  A
C2137      H2142   1.083       .  S
C2138      C2139   1.406       .  A
C2139      C2140   1.396       .  A
C2139      H2143   1.083       .  S
C2140      H2144   1.083       .  S
C2145      C2146   1.408       .  A
C2145      C2150   1.396       .  A
C2145      H2155   1.082       .  S
C2146      C2151   1.496       .  S
C2146      C2147   1.411       .  A
C2147      C2148   1.400       .  A
C2147      H2152   1.082       .  S
C2148      C2149   1.402       .  A
C2148      H2153   1.083       .  S
C2149      C2150   1.403       .  A
C2150      H2154   1.083       .  S
C2151      C2156   1.411       .  A
C2151      C2160   1.409       .  A
C2156      C2157   1.400   1_545  A
C2156      H2161   1.082       .  S
C2157      C2158   1.401       .  A
C2157      H2162   1.083       .  S
C2158      C2159   1.402   1_565  A
C2159      C2160   1.397       .  A
C2159      H2163   1.083       .  S
C2160      H2164   1.082       .  S
C2165      C2166   1.408       .  A
C2165      C2170   1.399       .  A
C2165      H2175   1.083       .  S
C2166      C2171   1.485       .  S
C2166      C2167   1.403       .  A
C2167      C2168   1.396       .  A
C2167      H2172   1.083       .  S
C2168      C2169   1.407       .  A
C2168      H2173   1.083       .  S
C2169      C2170   1.403       .  A
C2170      H2174   1.083       .  S
C2171      C2176   1.403       .  A
C2171      C2180   1.408       .  A
C2176      C2177   1.394       .  A
C2176      H2181   1.083       .  S
C2177      C2178   1.406       .  A
C2177      H2182   1.083       .  S
C2178      C2179   1.404       .  A
C2179      C2180   1.400       .  A
C2179      H2183   1.083       .  S
C2180      H2184   1.083       .  S
C2185      C2186   1.405       .  A
C2185      C2190   1.396       .  A
C2185      H2195   1.083       .  S
C2186      C2191   1.474       .  S
C2186      C2187   1.400       .  A
C2187      C2188   1.396       .  A
C2187      H2192   1.083       .  S
C2188      C2189   1.407       .  A
C2188      H2193   1.083       .  S
C2189      C2190   1.403       .  A
C2190      H2194   1.083       .  S
C2191      C2196   1.405       .  A
C2191      C2200   1.400       .  A
C2196      C2197   1.402       .  A
C2196      H2201   1.083       .  S
C2197      C2198   1.406       .  A
C2197      H2202   1.083       .  S
C2198      C2199   1.406       .  A
C2199      C2200   1.390       .  A
C2199      H2203   1.083       .  S
C2200      H2204   1.084       .  S
C2205      C2206   1.402       .  A
C2205      C2210   1.398       .  A
C2205      H2215   1.083       .  S
C2206      C2211   1.476       .  S
C2206      C2207   1.405       .  A
C2207      C2208   1.396       .  A
C2207      H2212   1.083       .  S
C2208      C2209   1.403       .  A
C2208      H2213   1.083       .  S
C2209      C2210   1.408       .  A
C2210      H2214   1.083       .  S
C2211      C2216   1.406       .  A
C2211      C2220   1.400       .  A
C2216      C2217   1.403       .  A
C2216      H2221   1.083       .  S
C2217      C2218   1.406       .  A
C2217      H2222   1.083       .  S
C2218      C2219   1.405       .  A
C2219      C2220   1.390       .  A
C2219      H2223   1.083       .  S
C2220      H2224   1.084       .  S
C2225      C2226   1.400       .  A
C2225      C2230   1.392       .  A
C2225      H2235   1.083       .  S
C2226      C2231   1.477       .  S
C2226      C2227   1.405       .  A
C2227      C2228   1.402       .  A
C2227      H2232   1.083       .  S
C2228      C2229   1.406       .  A
C2228      H2233   1.083       .  S
C2229      C2230   1.407       .  A
C2230      H2234   1.083       .  S
C2231      C2236   1.405       .  A
C2231      C2240   1.402       .  A
C2236      C2237   1.397       .  A
C2236      H2241   1.084       .  S
C2237      C2238   1.404       .  A
C2237      H2242   1.083       .  S
C2238      C2239   1.407       .  A
C2239      C2240   1.398       .  A
C2239      H2243   1.083       .  S
C2240      H2244   1.083       .  S
C2245      C2246   1.408       .  A
C2245      C2250   1.400       .  A
C2245      H2255   1.083       .  S
C2246      C2251   1.486       .  S
C2246      C2247   1.403       .  A
C2247      C2248   1.397       .  A
C2247      H2252   1.083       .  S
C2248      C2249   1.407       .  A
C2248      H2253   1.083       .  S
C2249      C2250   1.403       .  A
C2250      H2254   1.083       .  S
C2251      C2256   1.403       .  A
C2251      C2260   1.408       .  A
C2256      C2257   1.396       .  A
C2256      H2261   1.083       .  S
C2257      C2258   1.407       .  A
C2257      H2262   1.083       .  S
C2258      C2259   1.405       .  A
C2259      C2260   1.400       .  A
C2259      H2263   1.083       .  S
C2260      H2264   1.083       .  S
C2265      C2266   1.401       .  A
C2265      C2270   1.393       .  A
C2265      H2275   1.083       .  S
C2266      C2271   1.477       .  S
C2266      C2267   1.405       .  A
C2267      C2268   1.402       .  A
C2267      H2272   1.083       .  S
C2268      C2269   1.405       .  A
C2268      H2273   1.083       .  S
C2269      C2270   1.407       .  A
C2270      H2274   1.083       .  S
C2271      C2276   1.402       .  A
C2271      C2280   1.405       .  A
C2276      C2277   1.392       .  A
C2276      H2281   1.083       .  S
C2277      C2278   1.404       .  A
C2277      H2282   1.084       .  S
C2278      C2279   1.404       .  A
C2279      C2280   1.402       .  A
C2279      H2283   1.083       .  S
C2280      H2284   1.083       .  S
C2285      C2286   1.408       .  A
C2285      C2290   1.397       .  A
C2285      H2295   1.081   1_655  S
C2286      C2291   1.500   1_655  S
C2286      C2287   1.413       .  A
C2287      C2288   1.402       .  A
C2287      H2292   1.081       .  S
C2288      C2289   1.402       .  A
C2288      H2293   1.083       .  S
C2289      C2290   1.404       .  A
C2290      H2294   1.083       .  S
C2291      C2296   1.413       .  A
C2291      C2300   1.408       .  A
C2296      C2297   1.402       .  A
C2296      H2301   1.081       .  S
C2297      C2298   1.401       .  A
C2297      H2302   1.083       .  S
C2298      C2299   1.404       .  A
C2299      C2300   1.398       .  A
C2299      H2303   1.083       .  S
C2300      H2304   1.081       .  S
C2305      C2306   1.403       .  A
C2305      C2310   1.396       .  A
C2305      H2315   1.083       .  S
C2306      C2311   1.485       .  S
C2306      C2307   1.408       .  A
C2307      C2308   1.404       .  A
C2307      H2312   1.083       .  S
C2308      C2309   1.404       .  A
C2308      H2313   1.083       .  S
C2309      C2310   1.406       .  A
C2310      H2314   1.083       .  S
C2311      C2316   1.404       .  A
C2311      C2320   1.406       .  A
C2316      C2317   1.396       .  A
C2316      H2321   1.083       .  S
C2317      C2318   1.405       .  A
C2317      H2322   1.083       .  S
C2318      C2319   1.406       .  A
C2319      C2320   1.404       .  A
C2319      H2323   1.083       .  S
C2320      H2324   1.083       .  S
C2325      C2326   1.402       .  A
C2325      C2330   1.396       .  A
C2325      H2335   1.083       .  S
C2326      C2331   1.483       .  S
C2326      C2327   1.407       .  A
C2327      C2328   1.400       .  A
C2327      H2332   1.083       .  S
C2328      C2329   1.404       .  A
C2328      H2333   1.083       .  S
C2329      C2330   1.407       .  A
C2330      H2334   1.083       .  S
C2331      C2336   1.408       .  A
C2331      C2340   1.402       .  A
C2336      C2337   1.402       .  A
C2336      H2341   1.083       .  S
C2337      C2338   1.404       .  A
C2337      H2342   1.083       .  S
C2338      C2339   1.407       .  A
C2339      C2340   1.394       .  A
C2339      H2343   1.083       .  S
C2340      H2344   1.083       .  S
C2345      C2346   1.407       .  A
C2345      C2350   1.394   1_545  A
C2345      H2355   1.082       .  S
C2346      C2351   1.494       .  S
C2346      C2347   1.411   1_545  A
C2347      C2348   1.403       .  A
C2347      H2352   1.082       .  S
C2348      C2349   1.403       .  A
C2348      H2353   1.083       .  S
C2349      C2350   1.403       .  A
C2350      H2354   1.083       .  S
C2351      C2356   1.410       .  A
C2351      C2360   1.408       .  A
C2356      C2357   1.398       .  A
C2356      H2361   1.082       .  S
C2357      C2358   1.401       .  A
C2357      H2362   1.083       .  S
C2358      C2359   1.404       .  A
C2359      C2360   1.399       .  A
C2359      H2363   1.083       .  S
C2360      H2364   1.082       .  S
C2365      C2366   1.404       .  A
C2365      C2370   1.400       .  A
C2365      H2375   1.083       .  S
C2366      C2371   1.481       .  S
C2366      C2367   1.405       .  A
C2367      C2368   1.395       .  A
C2367      H2372   1.083       .  S
C2368      C2369   1.404       .  A
C2368      H2373   1.083       .  S
C2369      C2370   1.407       .  A
C2370      H2374   1.083       .  S
C2371      C2376   1.402       .  A
C2371      C2380   1.406       .  A
C2376      C2377   1.392       .  A
C2376      H2381   1.083       .  S
C2377      C2378   1.405       .  A
C2377      H2382   1.083       .  S
C2378      C2379   1.407       .  A
C2379      C2380   1.403       .  A
C2379      H2383   1.083       .  S
C2380      H2384   1.083       .  S
C2385      C2386   1.404       .  A
C2385      C2390   1.400   1_554  A
C2385      H2395   1.083       .  S
C2386      C2391   1.490       .  S
C2386      C2387   1.409   1_554  A
C2387      C2388   1.400       .  A
C2387      H2392   1.082       .  S
C2388      C2389   1.403       .  A
C2388      H2393   1.083       .  S
C2389      C2390   1.408       .  A
C2390      H2394   1.083       .  S
C2391      C2396   1.410       .  A
C2391      C2400   1.403       .  A
C2396      C2397   1.405       .  A
C2396      H2401   1.082       .  S
C2397      C2398   1.405       .  A
C2397      H2402   1.083       .  S
C2398      C2399   1.408       .  A
C2399      C2400   1.395       .  A
C2399      H2403   1.083       .  S
C2400      H2404   1.083       .  S
C2405      C2406   1.403       .  A
C2405      C2410   1.393       .  A
C2405      H2415   1.083       .  S
C2406      C2411   1.479       .  S
C2406      C2407   1.405       .  A
C2407      C2408   1.403       .  A
C2407      H2412   1.083       .  S
C2408      C2409   1.406       .  A
C2408      H2413   1.083       .  S
C2409      C2410   1.402       .  A
C2410      H2414   1.083       .  S
C2411      C2416   1.406       .  A
C2411      C2420   1.402       .  A
C2416      C2417   1.403       .  A
C2416      H2421   1.083       .  S
C2417      C2418   1.406       .  A
C2417      H2422   1.083       .  S
C2418      C2419   1.406       .  A
C2419      C2420   1.393       .  A
C2419      H2423   1.083       .  S
C2420      H2424   1.083       .  S
C2425      C2426   1.406       .  A
C2425      C2430   1.402       .  A
C2425      H2435   1.083       .  S
C2426      C2431   1.478       .  S
C2426      C2427   1.401       .  A
C2427      C2428   1.393       .  A
C2427      H2432   1.083       .  S
C2428      C2429   1.406       .  A
C2428      H2433   1.083       .  S
C2429      C2430   1.405       .  A
C2430      H2434   1.083       .  S
C2431      C2436   1.405       .  A
C2431      C2440   1.404       .  A
C2436      C2437   1.402       .  A
C2436      H2441   1.083       .  S
C2437      C2438   1.404       .  A
C2437      H2442   1.083       .  S
C2438      C2439   1.402       .  A
C2439      C2440   1.394       .  A
C2439      H2443   1.084       .  S
C2440      H2444   1.083       .  S
C2445      C2446   1.405       .  A
C2445      C2450   1.398       .  A
C2445      H2455   1.083       .  S
C2446      C2451   1.489       .  S
C2446      C2447   1.408       .  A
C2447      C2448   1.400       .  A
C2447      H2452   1.083       .  S
C2448      C2449   1.405       .  A
C2448      H2453   1.083       .  S
C2449      C2450   1.406       .  A
C2450      H2454   1.083       .  S
C2451      C2456   1.408       .  A
C2451      C2460   1.404       .  A
C2456      C2457   1.401       .  A
C2456      H2461   1.083       .  S
C2457      C2458   1.405       .  A
C2457      H2462   1.083       .  S
C2458      C2459   1.407       .  A
C2459      C2460   1.398       .  A
C2459      H2463   1.083       .  S
C2460      H2464   1.083       .  S
C2465      C2466   1.405       .  A
C2465      C2470   1.397       .  A
C2465      H2475   1.083       .  S
C2466      C2471   1.471       .  S
C2466      C2467   1.399       .  A
C2467      C2468   1.391       .  A
C2467      H2472   1.083       .  S
C2468      C2469   1.406       .  A
C2468      H2473   1.083       .  S
C2469      C2470   1.403       .  A
C2470      H2474   1.083       .  S
C2471      C2476   1.400       .  A
C2471      C2480   1.404       .  A
C2476      C2477   1.391       .  A
C2476      H2481   1.083       .  S
C2477      C2478   1.405       .  A
C2477      H2482   1.083       .  S
C2478      C2479   1.404       .  A
C2479      C2480   1.397       .  A
C2479      H2483   1.083       .  S
C2480      H2484   1.083       .  S
C2485      C2486   1.407       .  A
C2485      C2490   1.392       .  A
C2485      H2495   1.082       .  S
C2486      C2491   1.494       .  S
C2486      C2487   1.411       .  A
C2487      C2488   1.403       .  A
C2487      H2492   1.082       .  S
C2488      C2489   1.403       .  A
C2488      H2493   1.083       .  S
C2489      C2490   1.402       .  A
C2490      H2494   1.084       .  S
C2491      C2496   1.410       .  A
C2491      C2500   1.408       .  A
C2496      C2497   1.397       .  A
C2496      H2501   1.082       .  S
C2497      C2498   1.400       .  A
C2497      H2502   1.083       .  S
C2498      C2499   1.403       .  A
C2499      C2500   1.398       .  A
C2499      H2503   1.083       .  S
C2500      H2504   1.082       .  S
C2505      C2506   1.407       .  A
C2505      C2510   1.403       .  A
C2505      H2515   1.083       .  S
C2506      C2511   1.480       .  S
C2506      C2507   1.401       .  A
C2507      C2508   1.392       .  A
C2507      H2512   1.083       .  S
C2508      C2509   1.407       .  A
C2508      H2513   1.083       .  S
C2509      C2510   1.405       .  A
C2510      H2514   1.083       .  S
C2511      C2516   1.406       .  A
C2511      C2520   1.402       .  A
C2516      C2517   1.398       .  A
C2516      H2521   1.083       .  S
C2517      C2518   1.404       .  A
C2517      H2522   1.083       .  S
C2518      C2519   1.407       .  A
C2519      C2520   1.397       .  A
C2519      H2523   1.083       .  S
C2520      H2524   1.083       .  S
C2525      C2526   1.403       .  A
C2525      C2530   1.393       .  A
C2525      H2535   1.083       .  S
C2526      C2531   1.477       .  S
C2526      C2527   1.405       .  A
C2527      C2528   1.400       .  A
C2527      H2532   1.083       .  S
C2528      C2529   1.404       .  A
C2528      H2533   1.083       .  S
C2529      C2530   1.403       .  A
C2530      H2534   1.083       .  S
C2531      C2536   1.405       .  A
C2531      C2540   1.401       .  A
C2536      C2537   1.400       .  A
C2536      H2541   1.083       .  S
C2537      C2538   1.405       .  A
C2537      H2542   1.083       .  S
C2538      C2539   1.407       .  A
C2539      C2540   1.393       .  A
C2539      H2543   1.083       .  S
C2540      H2544   1.083       .  S
C2545      C2546   1.403       .  A
C2545      C2550   1.394       .  A
C2545      H2555   1.083       .  S
C2546      C2551   1.481       .  S
C2546      C2547   1.407       .  A
C2547      C2548   1.398       .  A
C2547      H2552   1.083       .  S
C2548      C2549   1.404       .  A
C2548      H2553   1.083       .  S
C2549      C2550   1.406       .  A
C2550      H2554   1.083       .  S
C2551      C2556   1.406   1_545  A
C2551      C2560   1.404       .  A
C2556      C2557   1.397       .  A
C2556      H2561   1.083   1_565  S
C2557      C2558   1.404       .  A
C2557      H2562   1.083       .  S
C2558      C2559   1.405       .  A
C2559      C2560   1.395   1_565  A
C2559      H2563   1.083       .  S
C2560      H2564   1.083       .  S
C2565      C2566   1.411       .  A
C2565      C2570   1.399       .  A
C2565      H2575   1.082       .  S
C2566      C2571   1.495       .  S
C2566      C2567   1.409       .  A
C2567      C2568   1.397       .  A
C2567      H2572   1.082       .  S
C2568      C2569   1.402       .  A
C2568      H2573   1.083       .  S
C2569      C2570   1.401       .  A
C2570      H2574   1.083       .  S
C2571      C2576   1.408       .  A
C2571      C2580   1.411       .  A
C2576      C2577   1.396       .  A
C2576      H2581   1.082       .  S
C2577      C2578   1.402       .  A
C2577      H2582   1.083       .  S
C2578      C2579   1.402       .  A
C2579      C2580   1.400       .  A
C2579      H2583   1.083       .  S
C2580      H2584   1.082       .  S
C2585      C2586   1.404       .  A
C2585      C2590   1.399       .  A
C2585      H2595   1.083       .  S
C2586      C2591   1.475       .  S
C2586      C2587   1.401       .  A
C2587      C2588   1.393       .  A
C2587      H2592   1.083       .  S
C2588      C2589   1.405       .  A
C2588      H2593   1.083       .  S
C2589      C2590   1.405       .  A
C2590      H2594   1.083       .  S
C2591      C2596   1.404       .  A
C2591      C2600   1.401       .  A
C2596      C2597   1.396       .  A
C2596      H2601   1.083       .  S
C2597      C2598   1.403       .  A
C2597      H2602   1.083       .  S
C2598      C2599   1.406       .  A
C2599      C2600   1.396       .  A
C2599      H2603   1.083       .  S
C2600      H2604   1.083       .  S
C2605      C2606   1.405       .  A
C2605      C2610   1.398   1_554  A
C2605      H2615   1.083       .  S
C2606      C2611   1.487       .  S
C2606      C2607   1.407   1_554  A
C2607      C2608   1.397       .  A
C2607      H2612   1.083       .  S
C2608      C2609   1.404       .  A
C2608      H2613   1.083       .  S
C2609      C2610   1.406       .  A
C2610      H2614   1.083       .  S
C2611      C2616   1.408       .  A
C2611      C2620   1.405       .  A
C2616      C2617   1.399       .  A
C2616      H2621   1.083       .  S
C2617      C2618   1.404       .  A
C2617      H2622   1.083       .  S
C2618      C2619   1.406       .  A
C2619      C2620   1.396       .  A
C2619      H2623   1.083       .  S
C2620      H2624   1.083       .  S
C2625      C2626   1.404       .  A
C2625      C2630   1.391       .  A
C2625      H2635   1.082       .  S
C2626      C2631   1.486       .  S
C2626      C2627   1.410       .  A
C2627      C2628   1.399       .  A
C2627      H2632   1.082       .  S
C2628      C2629   1.402       .  A
C2628      H2633   1.083       .  S
C2629      C2630   1.404       .  A
C2630      H2634   1.083       .  S
C2631      C2636   1.411       .  A
C2631      C2640   1.406       .  A
C2636      C2637   1.398       .  A
C2636      H2641   1.082       .  S
C2637      C2638   1.399       .  A
C2637      H2642   1.083       .  S
C2638      C2639   1.401       .  A
C2639      C2640   1.392       .  A
C2639      H2643   1.084       .  S
C2640      H2644   1.082       .  S
C2645      C2646   1.406       .  A
C2645      C2650   1.400       .  A
C2645      H2655   1.083       .  S
C2646      C2651   1.477       .  S
C2646      C2647   1.402       .  A
C2647      C2648   1.393       .  A
C2647      H2652   1.083       .  S
C2648      C2649   1.405       .  A
C2648      H2653   1.083       .  S
C2649      C2650   1.404       .  A
C2650      H2654   1.083       .  S
C2651      C2656   1.405       .  A
C2651      C2660   1.402       .  A
C2656      C2657   1.397       .  A
C2656      H2661   1.083       .  S
C2657      C2658   1.404       .  A
C2657      H2662   1.083       .  S
C2658      C2659   1.406       .  A
C2659      C2660   1.395       .  A
C2659      H2663   1.083       .  S
C2660      H2664   1.083       .  S
C2665      C2666   1.399       .  A
C2665      C2670   1.390       .  A
C2665      H2675   1.083       .  S
C2666      C2671   1.472       .  S
C2666      C2667   1.405       .  A
C2667      C2668   1.400       .  A
C2667      H2672   1.083       .  S
C2668      C2669   1.405       .  A
C2668      H2673   1.083       .  S
C2669      C2670   1.406       .  A
C2670      H2674   1.083       .  S
C2671      C2676   1.402       .  A
C2671      C2680   1.404       .  A
C2676      C2677   1.398       .  A
C2676      H2681   1.083       .  S
C2677      C2678   1.404       .  A
C2677      H2682   1.083       .  S
C2678      C2679   1.401       .  A
C2679      C2680   1.393       .  A
C2679      H2683   1.083       .  S
C2680      H2684   1.083       .  S
C2685      C2686   1.404       .  A
C2685      C2690   1.395       .  A
C2685      H2695   1.083   1_655  S
C2686      C2691   1.485   1_655  S
C2686      C2687   1.407       .  A
C2687      C2688   1.401       .  A
C2687      H2692   1.083       .  S
C2688      C2689   1.405       .  A
C2688      H2693   1.083       .  S
C2689      C2690   1.405       .  A
C2690      H2694   1.083       .  S
C2691      C2696   1.406       .  A
C2691      C2700   1.405       .  A
C2696      C2697   1.396       .  A
C2696      H2701   1.083       .  S
C2697      C2698   1.404       .  A
C2697      H2702   1.083       .  S
C2698      C2699   1.406       .  A
C2699      C2700   1.400       .  A
C2699      H2703   1.083       .  S
C2700      H2704   1.083   1_455  S
C2705      C2706   1.401       .  A
C2705      C2710   1.391       .  A
C2705      H2715   1.083       .  S
C2706      C2711   1.476       .  S
C2706      C2707   1.405       .  A
C2707      C2708   1.402       .  A
C2707      H2712   1.083       .  S
C2708      C2709   1.406       .  A
C2708      H2713   1.083       .  S
C2709      C2710   1.405       .  A
C2710      H2714   1.083       .  S
C2711      C2716   1.405       .  A
C2711      C2720   1.402       .  A
C2716      C2717   1.396       .  A
C2716      H2721   1.083       .  S
C2717      C2718   1.404       .  A
C2717      H2722   1.083       .  S
C2718      C2719   1.407       .  A
C2719      C2720   1.397       .  A
C2719      H2723   1.083       .  S
C2720      H2724   1.083       .  S
C2725      C2726   1.407       .  A
C2725      C2730   1.397       .  A
C2725      H2735   1.083       .  S
C2726      C2731   1.485       .  S
C2726      C2727   1.405       .  A
C2727      C2728   1.397       .  A
C2727      H2732   1.083       .  S
C2728      C2729   1.406       .  A
C2728      H2733   1.083       .  S
C2729      C2730   1.404       .  A
C2730      H2734   1.083       .  S
C2731      C2736   1.407       .  A
C2731      C2740   1.404       .  A
C2736      C2737   1.398       .  A
C2736      H2741   1.083       .  S
C2737      C2738   1.403       .  A
C2737      H2742   1.083       .  S
C2738      C2739   1.406       .  A
C2739      C2740   1.396       .  A
C2739      H2743   1.083       .  S
C2740      H2744   1.083       .  S
C2745      C2746   1.402       .  A
C2745      C2750   1.395       .  A
C2745      H2755   1.083       .  S
C2746      C2751   1.474       .  S
C2746      C2747   1.403       .  A
C2747      C2748   1.399       .  A
C2747      H2752   1.083       .  S
C2748      C2749   1.404       .  A
C2748      H2753   1.083       .  S
C2749      C2750   1.404       .  A
C2750      H2754   1.083       .  S
C2751      C2756   1.402       .  A
C2751      C2760   1.404       .  A
C2756      C2757   1.395       .  A
C2756      H2761   1.083       .  S
C2757      C2758   1.405       .  A
C2757      H2762   1.083       .  S
C2758      C2759   1.405       .  A
C2759      C2760   1.399       .  A
C2759      H2763   1.083       .  S
C2760      H2764   1.083       .  S
C2765      C2766   1.406       .  A
C2765      C2770   1.397       .  A
C2765      H2775   1.083       .  S
C2766      C2771   1.478       .  S
C2766      C2767   1.402       .  A
C2767      C2768   1.397       .  A
C2767      H2772   1.083       .  S
C2768      C2769   1.407       .  A
C2768      H2773   1.083       .  S
C2769      C2770   1.403       .  A
C2770      H2774   1.083       .  S
C2771      C2776   1.401       .  A
C2771      C2780   1.407       .  A
C2776      C2777   1.390       .  A
C2776      H2781   1.083       .  S
C2777      C2778   1.405       .  A
C2777      H2782   1.083       .  S
C2778      C2779   1.405       .  A
C2779      C2780   1.403       .  A
C2779      H2783   1.083       .  S
C2780      H2784   1.083       .  S
C2785      C2786   1.409       .  A
C2785      C2790   1.400       .  A
C2785      H2795   1.082       .  S
C2786      C2791   1.487       .  S
C2786      C2787   1.406       .  A
C2787      C2788   1.391       .  A
C2787      H2792   1.082       .  S
C2788      C2789   1.402       .  A
C2788      H2793   1.083       .  S
C2789      C2790   1.402       .  A
C2790      H2794   1.083       .  S
C2791      C2796   1.407       .  A
C2791      C2800   1.409       .  A
C2796      C2797   1.396       .  A
C2796      H2801   1.082       .  S
C2797      C2798   1.403       .  A
C2797      H2802   1.083       .  S
C2798      C2799   1.400       .  A
C2799      C2800   1.395       .  A
C2799      H2803   1.083       .  S
C2800      H2804   1.082       .  S
C2805      C2806   1.407       .  A
C2805      C2810   1.400       .  A
C2805      H2815   1.083       .  S
C2806      C2811   1.480       .  S
C2806      C2807   1.402       .  A
C2807      C2808   1.392       .  A
C2807      H2812   1.083       .  S
C2808      C2809   1.405       .  A
C2808      H2813   1.083       .  S
C2809      C2810   1.403       .  A
C2810      H2814   1.083       .  S
C2811      C2816   1.402       .  A
C2811      C2820   1.407       .  A
C2816      C2817   1.396       .  A
C2816      H2821   1.083       .  S
C2817      C2818   1.407       .  A
C2817      H2822   1.083       .  S
C2818      C2819   1.403       .  A
C2819      C2820   1.396       .  A
C2819      H2823   1.083       .  S
C2820      H2824   1.083       .  S
C2825      C2826   1.405       .  A
C2825      C2830   1.400       .  A
C2825      H2835   1.083       .  S
C2826      C2831   1.479       .  S
C2826      C2827   1.402       .  A
C2827      C2828   1.393       .  A
C2827      H2832   1.083   1_565  S
C2828      C2829   1.406       .  A
C2828      H2833   1.083   1_565  S
C2829      C2830   1.405       .  A
C2830      H2834   1.083       .  S
C2831      C2836   1.403       .  A
C2831      C2840   1.406       .  A
C2836      C2837   1.397       .  A
C2836      H2841   1.083       .  S
C2837      C2838   1.406       .  A
C2837      H2842   1.083       .  S
C2838      C2839   1.402       .  A
C2839      C2840   1.397       .  A
C2839      H2843   1.083       .  S
C2840      H2844   1.083       .  S
C2845      C2846   1.406       .  A
C2845      C2850   1.393       .  A
C2845      H2855   1.082       .  S
C2846      C2851   1.491       .  S
C2846      C2847   1.412       .  A
C2847      C2848   1.400       .  A
C2847      H2852   1.082       .  S
C2848      C2849   1.400       .  A
C2848      H2853   1.083       .  S
C2849      C2850   1.402       .  A
C2850      H2854   1.084       .  S
C2851      C2856   1.412       .  A
C2851      C2860   1.405       .  A
C2856      C2857   1.401       .  A
C2856      H2861   1.082       .  S
C2857      C2858   1.402       .  A
C2857      H2862   1.083       .  S
C2858      C2859   1.405       .  A
C2859      C2860   1.393       .  A
C2859      H2863   1.083       .  S
C2860      H2864   1.082       .  S
C2865      C2866   1.399       .  A
C2865      C2870   1.393       .  A
C2865      H2875   1.083       .  S
C2866      C2871   1.471       .  S
C2866      C2867   1.404       .  A
C2867      C2868   1.400       .  A
C2867      H2872   1.083       .  S
C2868      C2869   1.405       .  A
C2868      H2873   1.083       .  S
C2869      C2870   1.407       .  A
C2870      H2874   1.083       .  S
C2871      C2876   1.401       .  A
C2871      C2880   1.404       .  A
C2876      C2877   1.392       .  A
C2876      H2881   1.084       .  S
C2877      C2878   1.403       .  A
C2877      H2882   1.084       .  S
C2878      C2879   1.404       .  A
C2879      C2880   1.401       .  A
C2879      H2883   1.083       .  S
C2880      H2884   1.083       .  S
C2885      C2886   1.401       .  A
C2885      C2890   1.392       .  A
C2885      H2895   1.083       .  S
C2886      C2891   1.476       .  S
C2886      C2887   1.407       .  A
C2887      C2888   1.397       .  A
C2887      H2892   1.083       .  S
C2888      C2889   1.403       .  A
C2888      H2893   1.083       .  S
C2889      C2890   1.406       .  A
C2890      H2894   1.083       .  S
C2891      C2896   1.407       .  A
C2891      C2900   1.400       .  A
C2896      C2897   1.398       .  A
C2896      H2901   1.083       .  S
C2897      C2898   1.403       .  A
C2897      H2902   1.083       .  S
C2898      C2899   1.406       .  A
C2899      C2900   1.391       .  A
C2899      H2903   1.083       .  S
C2900      H2904   1.083       .  S
C2905      C2906   1.400       .  A
C2905      C2910   1.389       .  A
C2905      H2915   1.083       .  S
C2906      C2911   1.478       .  S
C2906      C2907   1.407       .  A
C2907      C2908   1.402       .  A
C2907      H2912   1.083       .  S
C2908      C2909   1.405       .  A
C2908      H2913   1.083       .  S
C2909      C2910   1.406       .  A
C2910      H2914   1.083       .  S
C2911      C2916   1.402       .  A
C2911      C2920   1.407       .  A
C2916      C2917   1.396       .  A
C2916      H2921   1.083       .  S
C2917      C2918   1.406       .  A
C2917      H2922   1.083       .  S
C2918      C2919   1.402       .  A
C2919      C2920   1.396       .  A
C2919      H2923   1.083       .  S
C2920      H2924   1.083       .  S
C2925      C2926   1.407       .  A
C2925      C2930   1.397       .  A
C2925      H2935   1.083       .  S
C2926      C2931   1.477       .  S
C2926      C2927   1.401       .  A
C2927      C2928   1.392       .  A
C2927      H2932   1.083       .  S
C2928      C2929   1.406       .  A
C2928      H2933   1.083       .  S
C2929      C2930   1.402       .  A
C2930      H2934   1.083       .  S
C2931      C2936   1.407       .  A
C2931      C2940   1.402       .  A
C2936      C2937   1.396       .  A
C2936      H2941   1.083       .  S
C2937      C2938   1.402       .  A
C2937      H2942   1.083       .  S
C2938      C2939   1.406       .  A
C2939      C2940   1.393       .  A
C2939      H2943   1.083       .  S
C2940      H2944   1.083       .  S
C2945      C2946   1.401       .  A
C2945      C2950   1.391       .  A
C2945      H2955   1.083       .  S
C2946      C2951   1.476       .  S
C2946      C2947   1.406       .  A
C2947      C2948   1.402       .  A
C2947      H2952   1.083       .  S
C2948      C2949   1.405       .  A
C2948      H2953   1.083       .  S
C2949      C2950   1.405       .  A
C2950      H2954   1.083   1_565  S
C2951      C2956   1.404       .  A
C2951      C2960   1.402       .  A
C2956      C2957   1.395       .  A
C2956      H2961   1.083       .  S
C2957      C2958   1.404       .  A
C2957      H2962   1.083       .  S
C2958      C2959   1.407       .  A
C2959      C2960   1.398       .  A
C2959      H2963   1.083       .  S
C2960      H2964   1.083       .  S
C2965      C2966   1.403       .  A
C2965      C2970   1.394       .  A
C2965      H2975   1.083       .  S
C2966      C2971   1.479       .  S
C2966      C2967   1.407       .  A
C2967      C2968   1.397       .  A
C2967      H2972   1.083       .  S
C2968      C2969   1.403       .  A
C2968      H2973   1.083       .  S
C2969      C2970   1.405       .  A
C2970      H2974   1.083       .  S
C2971      C2976   1.406       .  A
C2971      C2980   1.402       .  A
C2976      C2977   1.397       .  A
C2976      H2981   1.083       .  S
C2977      C2978   1.403       .  A
C2977      H2982   1.083       .  S
C2978      C2979   1.406       .  A
C2979      C2980   1.394       .  A
C2979      H2983   1.083       .  S
C2980      H2984   1.083       .  S
C2985      C2986   1.400       .  A
C2985      C2990   1.393       .  A
C2985      H2995   1.083       .  S
C2986      C2991   1.478       .  S
C2986      C2987   1.406       .  A
C2987      C2988   1.403       .  A
C2987      H2992   1.083       .  S
C2988      C2989   1.406       .  A
C2988      H2993   1.083       .  S
C2989      C2990   1.406       .  A
C2990      H2994   1.083       .  S
C2991      C2996   1.403       .  A
C2991      C3000   1.405       .  A
C2996      C2997   1.395       .  A
C2996      H3001   1.083       .  S
C2997      C2998   1.404       .  A
C2997      H3002   1.083       .  S
C2998      C2999   1.405       .  A
C2999      C3000   1.402       .  A
C2999      H3003   1.083       .  S
C3000      H3004   1.083       .  S
C3005      C3006   1.403       .  A
C3005      C3010   1.400       .  A
C3005      H3015   1.083       .  S
C3006      C3011   1.481       .  S
C3006      C3007   1.406       .  A
C3007      C3008   1.396       .  A
C3007      H3012   1.083       .  S
C3008      C3009   1.403       .  A
C3008      H3013   1.083       .  S
C3009      C3010   1.407       .  A
C3010      H3014   1.083       .  S
C3011      C3016   1.407       .  A
C3011      C3020   1.401       .  A
C3016      C3017   1.404       .  A
C3016      H3021   1.083       .  S
C3017      C3018   1.406       .  A
C3017      H3022   1.083       .  S
C3018      C3019   1.406       .  A
C3019      C3020   1.392       .  A
C3019      H3023   1.083       .  S
C3020      H3024   1.083       .  S
C3025      C3026   1.411       .  A
C3025      C3030   1.399       .  A
C3025      H3035   1.082       .  S
C3026      C3031   1.486       .  S
C3026      C3027   1.405       .  A
C3027      C3028   1.389       .  A
C3027      H3032   1.082       .  S
C3028      C3029   1.403       .  A
C3028      H3033   1.083       .  S
C3029      C3030   1.401       .  A
C3030      H3034   1.083       .  S
C3031      C3036   1.406       .  A
C3031      C3040   1.411       .  A
C3036      C3037   1.392       .  A
C3036      H3041   1.082       .  S
C3037      C3038   1.402       .  A
C3037      H3042   1.084       .  S
C3038      C3039   1.399       .  A
C3039      C3040   1.396       .  A
C3039      H3043   1.083       .  S
C3040      H3044   1.082       .  S
C3045      C3046   1.405       .  A
C3045      C3050   1.400       .  A
C3045      H3055   1.083   1_545  S
C3046      C3051   1.474       .  S
C3046      C3047   1.400   1_655  A
C3047      C3048   1.391       .  A
C3047      H3052   1.083       .  S
C3048      C3049   1.406   1_455  A
C3048      H3053   1.083       .  S
C3049      C3050   1.404       .  A
C3050      H3054   1.083       .  S
C3051      C3056   1.401   1_645  A
C3051      C3060   1.405       .  A
C3056      C3057   1.396       .  A
C3056      H3061   1.083       .  S
C3057      C3058   1.407   1_455  A
C3057      H3062   1.083       .  S
C3058      C3059   1.403   1_565  A
C3059      C3060   1.395       .  A
C3059      H3063   1.083       .  S
C3060      H3064   1.083       .  S
C3065      C3066   1.407       .  A
C3065      C3070   1.398       .  A
C3065      H3075   1.083       .  S
C3066      C3071   1.487       .  S
C3066      C3067   1.405       .  A
C3067      C3068   1.399       .  A
C3067      H3072   1.083       .  S
C3068      C3069   1.407       .  A
C3068      H3073   1.083       .  S
C3069      C3070   1.403       .  A
C3070      H3074   1.083       .  S
C3071      C3076   1.404       .  A
C3071      C3080   1.408       .  A
C3076      C3077   1.395       .  A
C3076      H3081   1.083       .  S
C3077      C3078   1.406       .  A
C3077      H3082   1.083       .  S
C3078      C3079   1.405       .  A
C3079      C3080   1.402       .  A
C3079      H3083   1.083       .  S
C3080      H3084   1.083       .  S
C3085      C3086   1.400       .  A
C3085      C3090   1.389       .  A
C3085      H3095   1.083       .  S
C3086      C3091   1.473       .  S
C3086      C3087   1.405       .  A
C3087      C3088   1.399       .  A
C3087      H3092   1.083       .  S
C3088      C3089   1.404       .  A
C3088      H3093   1.083       .  S
C3089      C3090   1.405       .  A
C3090      H3094   1.083       .  S
C3091      C3096   1.405       .  A
C3091      C3100   1.401       .  A
C3096      C3097   1.395       .  A
C3096      H3101   1.083       .  S
C3097      C3098   1.402       .  A
C3097      H3102   1.083       .  S
C3098      C3099   1.407       .  A
C3099      C3100   1.394       .  A
C3099      H3103   1.083       .  S
C3100      H3104   1.083       .  S
C3105      C3106   1.403       .  A
C3105      C3110   1.386       .  A
C3105      H3115   1.082       .  S
C3106      C3111   1.482       .  S
C3106      C3107   1.411       .  A
C3107      C3108   1.401       .  A
C3107      H3112   1.082       .  S
C3108      C3109   1.401       .  A
C3108      H3113   1.083       .  S
C3109      C3110   1.402       .  A
C3110      H3114   1.083       .  S
C3111      C3116   1.409       .  A
C3111      C3120   1.405       .  A
C3116      C3117   1.394       .  A
C3116      H3121   1.082       .  S
C3117      C3118   1.399       .  A
C3117      H3122   1.083       .  S
C3118      C3119   1.403       .  A
C3119      C3120   1.394       .  A
C3119      H3123   1.083       .  S
C3120      H3124   1.082       .  S
C3125      C3126   1.406       .  A
C3125      C3130   1.402       .  A
C3125      H3135   1.083       .  S
C3126      C3131   1.482       .  S
C3126      C3127   1.404       .  A
C3127      C3128   1.395       .  A
C3127      H3132   1.083       .  S
C3128      C3129   1.403       .  A
C3128      H3133   1.083       .  S
C3129      C3130   1.404       .  A
C3130      H3134   1.083       .  S
C3131      C3136   1.407       .  A
C3131      C3140   1.403       .  A
C3136      C3137   1.402       .  A
C3136      H3141   1.083       .  S
C3137      C3138   1.405       .  A
C3137      H3142   1.083       .  S
C3138      C3139   1.406       .  A
C3139      C3140   1.395       .  A
C3139      H3143   1.083       .  S
C3140      H3144   1.083       .  S
C3145      C3146   1.403       .  A
C3145      C3150   1.396       .  A
C3145      H3155   1.084       .  S
C3146      C3151   1.479       .  S
C3146      C3147   1.406       .  A
C3147      C3148   1.394       .  A
C3147      H3152   1.082       .  S
C3148      C3149   1.402       .  A
C3148      H3153   1.084       .  S
C3149      C3150   1.406       .  A
C3150      H3154   1.082       .  S
C3151      C3156   1.407       .  A
C3151      C3160   1.402       .  A
C3156      C3157   1.399       .  A
C3156      H3161   1.082       .  S
C3157      C3158   1.404       .  A
C3157      H3162   1.084       .  S
C3158      C3159   1.405       .  A
C3159      C3160   1.391       .  A
C3159      H3163   1.082       .  S
C3160      H3164   1.084       .  S
C3165      C3166   1.412       .  A
C3165      C3170   1.402       .  A
C3165      H3175   1.082       .  S
C3166      C3171   1.499       .  S
C3166      C3167   1.409   1_545  A
C3167      C3168   1.397       .  A
C3167      H3172   1.082       .  S
C3168      C3169   1.402       .  A
C3168      H3173   1.083       .  S
C3169      C3170   1.402   1_565  A
C3170      H3174   1.083       .  S
C3171      C3176   1.409       .  A
C3171      C3180   1.411       .  A
C3176      C3177   1.400       .  A
C3176      H3181   1.082       .  S
C3177      C3178   1.405       .  A
C3177      H3182   1.083       .  S
C3178      C3179   1.403       .  A
C3179      C3180   1.400       .  A
C3179      H3183   1.083       .  S
C3180      H3184   1.082       .  S
C3185      C3186   1.405       .  A
C3185      C3190   1.396       .  A
C3185      H3195   1.083       .  S
C3186      C3191   1.475       .  S
C3186      C3187   1.400       .  A
C3187      C3188   1.396       .  A
C3187      H3192   1.083       .  S
C3188      C3189   1.407       .  A
C3188      H3193   1.083       .  S
C3189      C3190   1.403       .  A
C3190      H3194   1.083       .  S
C3191      C3196   1.399       .  A
C3191      C3200   1.406       .  A
C3196      C3197   1.390       .  A
C3196      H3201   1.084       .  S
C3197      C3198   1.406       .  A
C3197      H3202   1.083       .  S
C3198      C3199   1.405       .  A
C3199      C3200   1.401       .  A
C3199      H3203   1.083       .  S
C3200      H3204   1.083       .  S
C3205      C3206   1.405       .  A
C3205      C3210   1.393       .  A
C3205      H3215   1.082       .  S
C3206      C3211   1.484       .  S
C3206      C3207   1.409       .  A
C3207      C3208   1.396       .  A
C3207      H3212   1.082       .  S
C3208      C3209   1.400       .  A
C3208      H3213   1.083       .  S
C3209      C3210   1.402       .  A
C3210      H3214   1.083       .  S
C3211      C3216   1.410       .  A
C3211      C3220   1.404       .  A
C3216      C3217   1.398       .  A
C3216      H3221   1.082       .  S
C3217      C3218   1.401       .  A
C3217      H3222   1.083       .  S
C3218      C3219   1.402       .  A
C3219      C3220   1.390       .  A
C3219      H3223   1.083       .  S
C3220      H3224   1.082       .  S
C3225      C3226   1.404       .  A
C3225      C3230   1.401       .  A
C3225      H3235   1.083       .  S
C3226      C3231   1.474       .  S
C3226      C3227   1.403       .  A
C3227      C3228   1.393       .  A
C3227      H3232   1.083   1_565  S
C3228      C3229   1.401       .  A
C3228      H3233   1.083       .  S
C3229      C3230   1.405       .  A
C3230      H3234   1.083       .  S
C3231      C3236   1.405       .  A
C3231      C3240   1.400       .  A
C3236      C3237   1.401       .  A
C3236      H3241   1.083       .  S
C3237      C3238   1.406       .  A
C3237      H3242   1.083       .  S
C3238      C3239   1.406       .  A
C3239      C3240   1.392       .  A
C3239      H3243   1.083       .  S
C3240      H3244   1.083       .  S
C3245      C3246   1.407       .  A
C3245      C3250   1.401       .  A
C3245      H3255   1.083       .  S
C3246      C3251   1.481       .  S
C3246      C3247   1.402       .  A
C3247      C3248   1.393       .  A
C3247      H3252   1.083       .  S
C3248      C3249   1.406       .  A
C3248      H3253   1.083       .  S
C3249      C3250   1.405       .  A
C3250      H3254   1.083       .  S
C3251      C3256   1.402       .  A
C3251      C3260   1.407       .  A
C3256      C3257   1.396       .  A
C3256      H3261   1.083       .  S
C3257      C3258   1.407       .  A
C3257      H3262   1.083       .  S
C3258      C3259   1.403       .  A
C3259      C3260   1.397       .  A
C3259      H3263   1.083       .  S
C3260      H3264   1.083       .  S
C3265      C3266   1.403       .  A
C3265      C3270   1.392       .  A
C3265      H3275   1.083       .  S
C3266      C3271   1.479       .  S
C3266      C3267   1.406       .  A
C3267      C3268   1.401       .  A
C3267      H3272   1.083       .  S
C3268      C3269   1.404       .  A
C3268      H3273   1.083       .  S
C3269      C3270   1.403       .  A
C3270      H3274   1.083       .  S
C3271      C3276   1.402       .  A
C3271      C3280   1.406       .  A
C3276      C3277   1.392       .  A
C3276      H3281   1.083       .  S
C3277      C3278   1.405       .  A
C3277      H3282   1.083       .  S
C3278      C3279   1.404       .  A
C3279      C3280   1.401       .  A
C3279      H3283   1.083       .  S
C3280      H3284   1.083       .  S
C3285      C3286   1.407       .  A
C3285      C3290   1.399       .  A
C3285      H3295   1.083       .  S
C3286      C3291   1.478       .  S
C3286      C3287   1.402       .  A
C3287      C3288   1.393       .  A
C3287      H3292   1.083       .  S
C3288      C3289   1.406       .  A
C3288      H3293   1.083       .  S
C3289      C3290   1.403       .  A
C3290      H3294   1.083       .  S
C3291      C3296   1.402       .  A
C3291      C3300   1.406       .  A
C3296      C3297   1.394       .  A
C3296      H3301   1.083       .  S
C3297      C3298   1.406       .  A
C3297      H3302   1.083       .  S
C3298      C3299   1.403       .  A
C3299      C3300   1.397       .  A
C3299      H3303   1.083       .  S
C3300      H3304   1.083       .  S
C3305      C3306   1.407       .  A
C3305      C3310   1.399       .  A
C3305      H3315   1.083       .  S
C3306      C3311   1.483       .  S
C3306      C3307   1.403       .  A
C3307      C3308   1.394       .  A
C3307      H3312   1.083       .  S
C3308      C3309   1.406       .  A
C3308      H3313   1.083       .  S
C3309      C3310   1.404       .  A
C3310      H3314   1.083       .  S
C3311      C3316   1.407       .  A
C3311      C3320   1.404       .  A
C3316      C3317   1.397       .  A
C3316      H3321   1.083       .  S
C3317      C3318   1.403       .  A
C3317      H3322   1.083       .  S
C3318      C3319   1.406       .  A
C3319      C3320   1.396       .  A
C3319      H3323   1.083       .  S
C3320      H3324   1.083       .  S
C3325      C3326   1.407   1_554  A
C3325      C3330   1.397       .  A
C3325      H3335   1.083       .  S
C3326      C3331   1.484   1_556  S
C3326      C3327   1.405       .  A
C3327      C3328   1.396       .  A
C3327      H3332   1.083       .  S
C3328      C3329   1.405       .  A
C3328      H3333   1.083       .  S
C3329      C3330   1.404   1_556  A
C3330      H3334   1.083       .  S
C3331      C3336   1.404       .  A
C3331      C3340   1.407   1_554  A
C3336      C3337   1.396       .  A
C3336      H3341   1.083       .  S
C3337      C3338   1.406       .  A
C3337      H3342   1.083       .  S
C3338      C3339   1.403       .  A
C3339      C3340   1.398   1_554  A
C3339      H3343   1.083   1_545  S
C3340      H3344   1.083   1_545  S
C3345      C3346   1.406       .  A
C3345      C3350   1.397       .  A
C3345      H3355   1.083       .  S
C3346      C3351   1.476       .  S
C3346      C3347   1.401       .  A
C3347      C3348   1.392       .  A
C3347      H3352   1.083       .  S
C3348      C3349   1.406       .  A
C3348      H3353   1.083       .  S
C3349      C3350   1.403       .  A
C3350      H3354   1.083       .  S
C3351      C3356   1.401       .  A
C3351      C3360   1.406       .  A
C3356      C3357   1.393       .  A
C3356      H3361   1.083       .  S
C3357      C3358   1.406       .  A
C3357      H3362   1.083       .  S
C3358      C3359   1.403       .  A
C3359      C3360   1.396       .  A
C3359      H3363   1.083       .  S
C3360      H3364   1.083       .  S
C3365      C3366   1.406       .  A
C3365      C3370   1.400       .  A
C3365      H3375   1.083       .  S
C3366      C3371   1.477       .  S
C3366      C3367   1.402       .  A
C3367      C3368   1.393       .  A
C3367      H3372   1.083       .  S
C3368      C3369   1.405       .  A
C3368      H3373   1.083       .  S
C3369      C3370   1.405       .  A
C3370      H3374   1.083       .  S
C3371      C3376   1.403       .  A
C3371      C3380   1.405       .  A
C3376      C3377   1.392       .  A
C3376      H3381   1.083       .  S
C3377      C3378   1.402       .  A
C3377      H3382   1.083       .  S
C3378      C3379   1.404       .  A
C3379      C3380   1.400       .  A
C3379      H3383   1.083       .  S
C3380      H3384   1.083       .  S
C3385      C3386   1.400       .  A
C3385      C3390   1.391       .  A
C3385      H3395   1.083       .  S
C3386      C3391   1.470       .  S
C3386      C3387   1.405       .  A
C3387      C3388   1.394       .  A
C3387      H3392   1.083       .  S
C3388      C3389   1.402       .  A
C3388      H3393   1.083       .  S
C3389      C3390   1.405       .  A
C3390      H3394   1.083       .  S
C3391      C3396   1.399       .  A
C3391      C3400   1.406       .  A
C3396      C3397   1.389       .  A
C3396      H3401   1.083       .  S
C3397      C3398   1.406       .  A
C3397      H3402   1.083       .  S
C3398      C3399   1.402       .  A
C3399      C3400   1.396       .  A
C3399      H3403   1.083       .  S
C3400      H3404   1.083       .  S
C3405      C3406   1.399       .  A
C3405      C3410   1.390       .  A
C3405      H3415   1.084       .  S
C3406      C3411   1.471       .  S
C3406      C3407   1.404       .  A
C3407      C3408   1.401       .  A
C3407      H3412   1.083       .  S
C3408      C3409   1.406       .  A
C3408      H3413   1.083       .  S
C3409      C3410   1.406       .  A
C3410      H3414   1.083       .  S
C3411      C3416   1.400       .  A
C3411      C3420   1.403       .  A
C3416      C3417   1.396       .  A
C3416      H3421   1.083       .  S
C3417      C3418   1.408       .  A
C3417      H3422   1.083       .  S
C3418      C3419   1.403       .  A
C3419      C3420   1.396       .  A
C3419      H3423   1.083       .  S
C3420      H3424   1.083       .  S
C3425      C3426   1.403       .  A
C3425      C3430   1.397       .  A
C3425      H3435   1.083       .  S
C3426      C3431   1.478       .  S
C3426      C3427   1.405       .  A
C3427      C3428   1.394       .  A
C3427      H3432   1.083       .  S
C3428      C3429   1.402       .  A
C3428      H3433   1.083       .  S
C3429      C3430   1.406       .  A
C3430      H3434   1.083       .  S
C3431      C3436   1.406       .  A
C3431      C3440   1.403       .  A
C3436      C3437   1.398       .  A
C3436      H3441   1.083       .  S
C3437      C3438   1.404       .  A
C3437      H3442   1.083       .  S
C3438      C3439   1.404       .  A
C3439      C3440   1.392       .  A
C3439      H3443   1.083       .  S
C3440      H3444   1.083       .  S
C3445      C3446   1.405       .  A
C3445      C3450   1.398       .  A
C3445      H3455   1.083       .  S
C3446      C3451   1.478       .  S
C3446      C3447   1.402       .  A
C3447      C3448   1.394       .  A
C3447      H3452   1.083   1_565  S
C3448      C3449   1.406       .  A
C3448      H3453   1.083       .  S
C3449      C3450   1.404       .  A
C3450      H3454   1.083       .  S
C3451      C3456   1.405       .  A
C3451      C3460   1.402       .  A
C3456      C3457   1.398       .  A
C3456      H3461   1.083       .  S
C3457      C3458   1.404       .  A
C3457      H3462   1.083       .  S
C3458      C3459   1.406       .  A
C3459      C3460   1.394       .  A
C3459      H3463   1.083       .  S
C3460      H3464   1.083       .  S
C3465      C3466   1.408       .  A
C3465      C3470   1.400       .  A
C3465      H3475   1.083       .  S
C3466      C3471   1.485       .  S
C3466      C3467   1.403       .  A
C3467      C3468   1.396       .  A
C3467      H3472   1.083       .  S
C3468      C3469   1.407       .  A
C3468      H3473   1.083       .  S
C3469      C3470   1.404       .  A
C3470      H3474   1.083       .  S
C3471      C3476   1.403       .  A
C3471      C3480   1.408       .  A
C3476      C3477   1.396       .  A
C3476      H3481   1.083       .  S
C3477      C3478   1.406       .  A
C3477      H3482   1.083       .  S
C3478      C3479   1.404       .  A
C3479      C3480   1.400       .  A
C3479      H3483   1.083       .  S
C3480      H3484   1.083       .  S
C3485      C3486   1.408   1_556  A
C3485      C3490   1.394       .  A
C3485      H3495   1.082       .  S
C3486      C3491   1.492       .  S
C3486      C3487   1.410       .  A
C3487      C3488   1.399       .  A
C3487      H3492   1.082       .  S
C3488      C3489   1.402   1_554  A
C3488      H3493   1.083       .  S
C3489      C3490   1.402       .  A
C3490      H3494   1.083       .  S
C3491      C3496   1.410       .  A
C3491      C3500   1.408       .  A
C3496      C3497   1.398       .  A
C3496      H3501   1.082   1_554  S
C3497      C3498   1.401       .  A
C3497      H3502   1.083       .  S
C3498      C3499   1.403       .  A
C3499      C3500   1.395       .  A
C3499      H3503   1.083       .  S
C3500      H3504   1.082       .  S
C3505      C3506   1.400       .  A
C3505      C3510   1.390       .  A
C3505      H3515   1.083       .  S
C3506      C3511   1.472       .  S
C3506      C3507   1.405       .  A
C3507      C3508   1.400       .  A
C3507      H3512   1.083       .  S
C3508      C3509   1.405       .  A
C3508      H3513   1.083       .  S
C3509      C3510   1.405       .  A
C3510      H3514   1.083       .  S
C3511      C3516   1.404       .  A
C3511      C3520   1.401       .  A
C3516      C3517   1.396       .  A
C3516      H3521   1.083       .  S
C3517      C3518   1.403       .  A
C3517      H3522   1.083       .  S
C3518      C3519   1.406       .  A
C3519      C3520   1.394       .  A
C3519      H3523   1.083       .  S
C3520      H3524   1.083       .  S
C3525      C3526   1.409       .  A
C3525      C3530   1.395       .  A
C3525      H3535   1.082       .  S
C3526      C3531   1.483       .  S
C3526      C3527   1.405       .  A
C3527      C3528   1.393       .  A
C3527      H3532   1.082       .  S
C3528      C3529   1.403       .  A
C3528      H3533   1.083       .  S
C3529      C3530   1.399       .  A
C3530      H3534   1.083       .  S
C3531      C3536   1.405       .  A
C3531      C3540   1.409       .  A
C3536      C3537   1.389       .  A
C3536      H3541   1.082       .  S
C3537      C3538   1.402       .  A
C3537      H3542   1.083       .  S
C3538      C3539   1.402       .  A
C3539      C3540   1.398       .  A
C3539      H3543   1.083       .  S
C3540      H3544   1.082       .  S
C3545      C3546   1.403       .  A
C3545      C3550   1.399       .  A
C3545      H3555   1.083       .  S
C3546      C3551   1.470       .  S
C3546      C3547   1.400       .  A
C3547      C3548   1.392       .  A
C3547      H3552   1.084       .  S
C3548      C3549   1.406       .  A
C3548      H3553   1.083       .  S
C3549      C3550   1.405       .  A
C3550      H3554   1.083       .  S
C3551      C3556   1.400       .  A
C3551      C3560   1.403       .  A
C3556      C3557   1.394       .  A
C3556      H3561   1.083       .  S
C3557      C3558   1.406       .  A
C3557      H3562   1.083       .  S
C3558      C3559   1.404       .  A
C3559      C3560   1.397       .  A
C3559      H3563   1.083       .  S
C3560      H3564   1.083       .  S
C3565      C3566   1.404       .  A
C3565      C3570   1.402       .  A
C3565      H3575   1.083       .  S
C3566      C3571   1.485       .  S
C3566      C3567   1.406       .  A
C3567      C3568   1.398       .  A
C3567      H3572   1.083       .  S
C3568      C3569   1.404       .  A
C3568      H3573   1.083       .  S
C3569      C3570   1.408       .  A
C3570      H3574   1.083       .  S
C3571      C3576   1.402       .  A
C3571      C3580   1.407       .  A
C3576      C3577   1.394       .  A
C3576      H3581   1.083       .  S
C3577      C3578   1.407       .  A
C3577      H3582   1.083   1_565  S
C3578      C3579   1.407       .  A
C3579      C3580   1.405       .  A
C3579      H3583   1.083       .  S
C3580      H3584   1.083       .  S
C3585      C3586   1.405       .  A
C3585      C3590   1.392       .  A
C3585      H3595   1.082       .  S
C3586      C3591   1.486       .  S
C3586      C3587   1.410       .  A
C3587      C3588   1.398       .  A
C3587      H3592   1.082       .  S
C3588      C3589   1.401       .  A
C3588      H3593   1.083       .  S
C3589      C3590   1.404       .  A
C3590      H3594   1.083       .  S
C3591      C3596   1.410       .  A
C3591      C3600   1.405       .  A
C3596      C3597   1.398       .  A
C3596      H3601   1.082       .  S
C3597      C3598   1.399       .  A
C3597      H3602   1.083       .  S
C3598      C3599   1.403       .  A
C3599      C3600   1.393       .  A
C3599      H3603   1.084       .  S
C3600      H3604   1.082       .  S
C3605      C3606   1.407       .  A
C3605      C3610   1.399       .  A
C3605      H3615   1.083       .  S
C3606      C3611   1.482       .  S
C3606      C3607   1.402       .  A
C3607      C3608   1.394       .  A
C3607      H3612   1.083       .  S
C3608      C3609   1.406       .  A
C3608      H3613   1.083       .  S
C3609      C3610   1.404       .  A
C3610      H3614   1.083       .  S
C3611      C3616   1.402       .  A
C3611      C3620   1.407       .  A
C3616      C3617   1.396       .  A
C3616      H3621   1.083       .  S
C3617      C3618   1.408       .  A
C3617      H3622   1.083       .  S
C3618      C3619   1.403       .  A
C3619      C3620   1.398       .  A
C3619      H3623   1.083       .  S
C3620      H3624   1.083       .  S
C3625      C3626   1.407       .  A
C3625      C3630   1.396       .  A
C3625      H3635   1.083       .  S
C3626      C3631   1.479       .  S
C3626      C3627   1.403       .  A
C3627      C3628   1.394       .  A
C3627      H3632   1.083       .  S
C3628      C3629   1.406       .  A
C3628      H3633   1.083       .  S
C3629      C3630   1.402       .  A
C3630      H3634   1.083       .  S
C3631      C3636   1.403       .  A
C3631      C3640   1.407       .  A
C3636      C3637   1.393       .  A
C3636      H3641   1.083       .  S
C3637      C3638   1.405       .  A
C3637      H3642   1.083       .  S
C3638      C3639   1.403       .  A
C3639      C3640   1.396       .  A
C3639      H3643   1.083       .  S
C3640      H3644   1.083       .  S
C3645      C3646   1.404       .  A
C3645      C3650   1.395       .  A
C3645      H3655   1.083       .  S
C3646      C3651   1.483       .  S
C3646      C3647   1.407       .  A
C3647      C3648   1.399       .  A
C3647      H3652   1.083       .  S
C3648      C3649   1.405       .  A
C3648      H3653   1.083       .  S
C3649      C3650   1.405       .  A
C3650      H3654   1.083       .  S
C3651      C3656   1.404       .  A
C3651      C3660   1.406       .  A
C3656      C3657   1.396   1_545  A
C3656      H3661   1.083   1_545  S
C3657      C3658   1.406   1_565  A
C3657      H3662   1.083       .  S
C3658      C3659   1.404       .  A
C3659      C3660   1.396       .  A
C3659      H3663   1.083       .  S
C3660      H3664   1.083       .  S
C3665      C3666   1.402       .  A
C3665      C3670   1.393       .  A
C3665      H3675   1.083       .  S
C3666      C3671   1.474       .  S
C3666      C3667   1.405       .  A
C3667      C3668   1.400       .  A
C3667      H3672   1.083       .  S
C3668      C3669   1.404       .  A
C3668      H3673   1.083       .  S
C3669      C3670   1.405       .  A
C3670      H3674   1.083       .  S
C3671      C3676   1.402       .  A
C3671      C3680   1.405       .  A
C3676      C3677   1.391       .  A
C3676      H3681   1.083       .  S
C3677      C3678   1.403       .  A
C3677      H3682   1.083       .  S
C3678      C3679   1.404       .  A
C3679      C3680   1.400       .  A
C3679      H3683   1.083       .  S
C3680      H3684   1.083       .  S
C3685      C3686   1.402       .  A
C3685      C3690   1.394       .  A
C3685      H3695   1.083       .  S
C3686      C3691   1.478       .  S
C3686      C3687   1.407       .  A
C3687      C3688   1.397       .  A
C3687      H3692   1.083       .  S
C3688      C3689   1.402       .  A
C3688      H3693   1.083       .  S
C3689      C3690   1.406       .  A
C3690      H3694   1.083       .  S
C3691      C3696   1.407       .  A
C3691      C3700   1.401       .  A
C3696      C3697   1.399       .  A
C3696      H3701   1.083       .  S
C3697      C3698   1.403       .  A
C3697      H3702   1.083       .  S
C3698      C3699   1.406       .  A
C3699      C3700   1.392       .  A
C3699      H3703   1.083       .  S
C3700      H3704   1.083       .  S
C3705      C3706   1.408       .  A
C3705      C3710   1.393       .  A
C3705      H3715   1.081       .  S
C3706      C3711   1.494       .  S
C3706      C3707   1.411       .  A
C3707      C3708   1.400       .  A
C3707      H3712   1.082       .  S
C3708      C3709   1.402       .  A
C3708      H3713   1.083       .  S
C3709      C3710   1.402       .  A
C3710      H3714   1.083       .  S
C3711      C3716   1.411       .  A
C3711      C3720   1.409       .  A
C3716      C3717   1.397       .  A
C3716      H3721   1.082       .  S
C3717      C3718   1.401       .  A
C3717      H3722   1.083       .  S
C3718      C3719   1.402       .  A
C3719      C3720   1.396       .  A
C3719      H3723   1.083       .  S
C3720      H3724   1.081       .  S
C3725      C3726   1.409       .  A
C3725      C3730   1.396       .  A
C3725      H3735   1.082       .  S
C3726      C3731   1.483       .  S
C3726      C3727   1.405       .  A
C3727      C3728   1.391       .  A
C3727      H3732   1.082       .  S
C3728      C3729   1.402       .  A
C3728      H3733   1.084       .  S
C3729      C3730   1.399       .  A
C3730      H3734   1.083       .  S
C3731      C3736   1.405       .  A
C3731      C3740   1.409       .  A
C3736      C3737   1.391       .  A
C3736      H3741   1.082       .  S
C3737      C3738   1.402       .  A
C3737      H3742   1.083       .  S
C3738      C3739   1.401       .  A
C3739      C3740   1.396       .  A
C3739      H3743   1.083       .  S
C3740      H3744   1.082       .  S
C3745      C3746   1.402       .  A
C3745      C3750   1.398       .  A
C3745      H3755   1.083       .  S
C3746      C3751   1.480       .  S
C3746      C3747   1.406       .  A
C3747      C3748   1.397       .  A
C3747      H3752   1.083       .  S
C3748      C3749   1.403       .  A
C3748      H3753   1.083       .  S
C3749      C3750   1.407       .  A
C3750      H3754   1.083       .  S
C3751      C3756   1.406       .  A
C3751      C3760   1.402       .  A
C3756      C3757   1.402       .  A
C3756      H3761   1.083       .  S
C3757      C3758   1.405       .  A
C3757      H3762   1.083       .  S
C3758      C3759   1.406       .  A
C3759      C3760   1.393       .  A
C3759      H3763   1.083       .  S
C3760      H3764   1.083       .  S
C3765      C3766   1.402       .  A
C3765      C3770   1.396       .  A
C3765      H3775   1.083       .  S
C3766      C3771   1.480       .  S
C3766      C3767   1.407       .  A
C3767      C3768   1.397       .  A
C3767      H3772   1.083       .  S
C3768      C3769   1.403       .  A
C3768      H3773   1.083       .  S
C3769      C3770   1.407       .  A
C3770      H3774   1.083       .  S
C3771      C3776   1.401       .  A
C3771      C3780   1.407       .  A
C3776      C3777   1.390       .  A
C3776      H3781   1.083       .  S
C3777      C3778   1.406       .  A
C3777      H3782   1.083       .  S
C3778      C3779   1.405       .  A
C3779      C3780   1.402       .  A
C3779      H3783   1.083       .  S
C3780      H3784   1.083       .  S
C3785      C3786   1.407       .  A
C3785      C3790   1.396       .  A
C3785      H3795   1.083       .  S
C3786      C3791   1.477       .  S
C3786      C3787   1.401       .  A
C3787      C3788   1.392       .  A
C3787      H3792   1.083       .  S
C3788      C3789   1.406       .  A
C3788      H3793   1.083       .  S
C3789      C3790   1.402       .  A
C3790      H3794   1.083       .  S
C3791      C3796   1.407       .  A
C3791      C3800   1.401       .  A
C3796      C3797   1.398       .  A
C3796      H3801   1.083       .  S
C3797      C3798   1.402       .  A
C3797      H3802   1.083       .  S
C3798      C3799   1.407       .  A
C3799      C3800   1.391       .  A
C3799      H3803   1.083       .  S
C3800      H3804   1.083       .  S
C3805      C3806   1.407       .  A
C3805      C3810   1.398       .  A
C3805      H3815   1.083       .  S
C3806      C3811   1.486       .  S
C3806      C3807   1.405   1_545  A
C3807      C3808   1.397       .  A
C3807      H3812   1.083       .  S
C3808      C3809   1.406   1_565  A
C3808      H3813   1.083       .  S
C3809      C3810   1.405       .  A
C3810      H3814   1.083       .  S
C3811      C3816   1.405       .  A
C3811      C3820   1.407       .  A
C3816      C3817   1.397       .  A
C3816      H3821   1.083       .  S
C3817      C3818   1.406       .  A
C3817      H3822   1.083       .  S
C3818      C3819   1.404       .  A
C3819      C3820   1.399       .  A
C3819      H3823   1.083       .  S
C3820      H3824   1.083       .  S
C3825      C3826   1.401       .  A
C3825      C3830   1.391       .  A
C3825      H3835   1.083   1_565  S
C3826      C3831   1.476       .  S
C3826      C3827   1.405       .  A
C3827      C3828   1.402       .  A
C3827      H3832   1.084       .  S
C3828      C3829   1.406       .  A
C3828      H3833   1.082       .  S
C3829      C3830   1.405       .  A
C3830      H3834   1.084       .  S
C3831      C3836   1.405       .  A
C3831      C3840   1.401       .  A
C3836      C3837   1.396       .  A
C3836      H3841   1.084       .  S
C3837      C3838   1.403       .  A
C3837      H3842   1.082       .  S
C3838      C3839   1.407       .  A
C3839      C3840   1.397       .  A
C3839      H3843   1.084       .  S
C3840      H3844   1.083       .  S
C3845      C3846   1.408       .  A
C3845      C3850   1.400       .  A
C3845      H3855   1.083       .  S
C3846      C3851   1.483       .  S
C3846      C3847   1.403       .  A
C3847      C3848   1.393       .  A
C3847      H3852   1.083       .  S
C3848      C3849   1.406       .  A
C3848      H3853   1.083       .  S
C3849      C3850   1.403       .  A
C3850      H3854   1.083       .  S
C3851      C3856   1.404       .  A
C3851      C3860   1.407       .  A
C3856      C3857   1.396       .  A
C3856      H3861   1.083       .  S
C3857      C3858   1.406       .  A
C3857      H3862   1.083       .  S
C3858      C3859   1.403       .  A
C3859      C3860   1.396       .  A
C3859      H3863   1.083       .  S
C3860      H3864   1.083       .  S
C3865      C3866   1.407       .  A
C3865      C3870   1.404       .  A
C3865      H3875   1.083       .  S
C3866      C3871   1.479       .  S
C3866      C3867   1.401       .  A
C3867      C3868   1.389       .  A
C3867      H3872   1.083       .  S
C3868      C3869   1.406       .  A
C3868      H3873   1.083       .  S
C3869      C3870   1.406       .  A
C3870      H3874   1.083       .  S
C3871      C3876   1.406       .  A
C3871      C3880   1.403       .  A
C3876      C3877   1.395       .  A
C3876      H3881   1.083       .  S
C3877      C3878   1.403       .  A
C3877      H3882   1.083       .  S
C3878      C3879   1.407       .  A
C3879      C3880   1.399       .  A
C3879      H3883   1.083       .  S
C3880      H3884   1.083       .  S
C3885      C3886   1.404       .  A
C3885      C3890   1.397       .  A
C3885      H3895   1.083       .  S
C3886      C3891   1.474       .  S
C3886      C3887   1.402       .  A
C3887      C3888   1.394       .  A
C3887      H3892   1.083       .  S
C3888      C3889   1.406       .  A
C3888      H3893   1.083       .  S
C3889      C3890   1.403       .  A
C3890      H3894   1.083       .  S
C3891      C3896   1.403       .  A
C3891      C3900   1.404       .  A
C3896      C3897   1.394       .  A
C3896      H3901   1.083       .  S
C3897      C3898   1.404       .  A
C3897      H3902   1.083       .  S
C3898      C3899   1.403       .  A
C3899      C3900   1.398       .  A
C3899      H3903   1.083       .  S
C3900      H3904   1.083       .  S
C3905      C3906   1.407       .  A
C3905      C3910   1.396       .  A
C3905      H3915   1.083       .  S
C3906      C3911   1.481       .  S
C3906      C3907   1.403       .  A
C3907      C3908   1.395       .  A
C3907      H3912   1.083       .  S
C3908      C3909   1.406       .  A
C3908      H3913   1.083       .  S
C3909      C3910   1.403       .  A
C3910      H3914   1.083       .  S
C3911      C3916   1.407       .  A
C3911      C3920   1.403       .  A
C3916      C3917   1.399       .  A
C3916      H3921   1.083       .  S
C3917      C3918   1.403       .  A
C3917      H3922   1.083       .  S
C3918      C3919   1.406       .  A
C3919      C3920   1.393       .  A
C3919      H3923   1.083       .  S
C3920      H3924   1.083       .  S
C3925      C3926   1.407       .  A
C3925      C3930   1.397       .  A
C3925      H3935   1.083       .  S
C3926      C3931   1.480       .  S
C3926      C3927   1.403       .  A
C3927      C3928   1.394       .  A
C3927      H3932   1.083       .  S
C3928      C3929   1.405       .  A
C3928      H3933   1.083       .  S
C3929      C3930   1.403       .  A
C3930      H3934   1.083       .  S
C3931      C3936   1.403       .  A
C3931      C3940   1.407       .  A
C3936      C3937   1.395       .  A
C3936      H3941   1.083       .  S
C3937      C3938   1.406       .  A
C3937      H3942   1.083       .  S
C3938      C3939   1.403       .  A
C3939      C3940   1.396       .  A
C3939      H3943   1.083       .  S
C3940      H3944   1.083       .  S
C3945      C3946   1.406       .  A
C3945      C3950   1.397       .  A
C3945      H3955   1.083       .  S
C3946      C3951   1.478       .  S
C3946      C3947   1.402       .  A
C3947      C3948   1.395       .  A
C3947      H3952   1.083       .  S
C3948      C3949   1.405       .  A
C3948      H3953   1.083       .  S
C3949      C3950   1.403       .  A
C3950      H3954   1.083       .  S
C3951      C3956   1.406       .  A
C3951      C3960   1.402       .  A
C3956      C3957   1.399       .  A
C3956      H3961   1.083       .  S
C3957      C3958   1.404       .  A
C3957      H3962   1.083       .  S
C3958      C3959   1.406       .  A
C3959      C3960   1.393       .  A
C3959      H3963   1.083       .  S
C3960      H3964   1.083       .  S
C3965      C3966   1.404       .  A
C3965      C3970   1.390       .  A
C3965      H3975   1.082       .  S
C3966      C3971   1.486       .  S
C3966      C3967   1.411       .  A
C3967      C3968   1.402       .  A
C3967      H3972   1.082       .  S
C3968      C3969   1.401       .  A
C3968      H3973   1.083       .  S
C3969      C3970   1.402       .  A
C3970      H3974   1.084       .  S
C3971      C3976   1.409       .  A
C3971      C3980   1.404       .  A
C3976      C3977   1.397       .  A
C3976      H3981   1.082       .  S
C3977      C3978   1.401       .  A
C3977      H3982   1.083       .  S
C3978      C3979   1.406       .  A
C3979      C3980   1.396       .  A
C3979      H3983   1.083       .  S
C3980      H3984   1.082       .  S
C3985      C3986   1.403       .  A
C3985      C3990   1.395       .  A
C3985      H3995   1.083       .  S
C3986      C3991   1.487       .  S
C3986      C3987   1.408       .  A
C3987      C3988   1.403       .  A
C3987      H3992   1.083       .  S
C3988      C3989   1.405       .  A
C3988      H3993   1.083       .  S
C3989      C3990   1.406       .  A
C3990      H3994   1.083       .  S
C3991      C3996   1.408       .  A
C3991      C4000   1.404       .  A
C3996      C3997   1.399       .  A
C3996      H4001   1.083       .  S
C3997      C3998   1.404       .  A
C3997      H4002   1.083       .  S
C3998      C3999   1.408       .  A
C3999      C4000   1.398       .  A
C3999      H4003   1.083       .  S
C4000      H4004   1.083       .  S
C4005      C4006   1.407       .  A
C4005      C4010   1.403       .  A
C4005      H4015   1.083       .  S
C4006      C4011   1.484       .  S
C4006      C4007   1.403       .  A
C4007      C4008   1.396       .  A
C4007      H4012   1.083       .  S
C4008      C4009   1.407       .  A
C4008      H4013   1.083       .  S
C4009      C4010   1.406       .  A
C4010      H4014   1.083       .  S
C4011      C4016   1.403       .  A
C4011      C4020   1.407       .  A
C4016      C4017   1.398       .  A
C4016      H4021   1.083       .  S
C4017      C4018   1.406       .  A
C4017      H4022   1.083       .  S
C4018      C4019   1.404       .  A
C4019      C4020   1.401       .  A
C4019      H4023   1.083       .  S
C4020      H4024   1.083       .  S
C4025      C4026   1.407       .  A
C4025      C4030   1.397       .  A
C4025      H4035   1.083       .  S
C4026      C4031   1.482       .  S
C4026      C4027   1.403       .  A
C4027      C4028   1.394       .  A
C4027      H4032   1.083       .  S
C4028      C4029   1.406       .  A
C4028      H4033   1.083       .  S
C4029      C4030   1.404       .  A
C4030      H4034   1.083       .  S
C4031      C4036   1.403       .  A
C4031      C4040   1.407       .  A
C4036      C4037   1.394       .  A
C4036      H4041   1.083       .  S
C4037      C4038   1.406       .  A
C4037      H4042   1.083       .  S
C4038      C4039   1.403       .  A
C4039      C4040   1.398       .  A
C4039      H4043   1.083       .  S
C4040      H4044   1.083       .  S
C4045      C4046   1.402       .  A
C4045      C4050   1.392       .  A
C4045      H4055   1.083       .  S
C4046      C4051   1.475       .  S
C4046      C4047   1.405       .  A
C4047      C4048   1.402       .  A
C4047      H4052   1.083       .  S
C4048      C4049   1.405       .  A
C4048      H4053   1.083       .  S
C4049      C4050   1.403       .  A
C4050      H4054   1.083       .  S
C4051      C4056   1.402       .  A
C4051      C4060   1.404       .  A
C4056      C4057   1.393       .  A
C4056      H4061   1.083       .  S
C4057      C4058   1.405       .  A
C4057      H4062   1.083       .  S
C4058      C4059   1.405       .  A
C4059      C4060   1.400       .  A
C4059      H4063   1.083       .  S
C4060      H4064   1.083       .  S
C4065      C4066   1.409       .  A
C4065      C4070   1.402       .  A
C4065      H4075   1.083       .  S
C4066      C4071   1.484       .  S
C4066      C4067   1.402       .  A
C4067      C4068   1.391       .  A
C4067      H4072   1.083       .  S
C4068      C4069   1.406       .  A
C4068      H4073   1.083       .  S
C4069      C4070   1.404       .  A
C4070      H4074   1.083       .  S
C4071      C4076   1.408       .  A
C4071      C4080   1.404       .  A
C4076      C4077   1.396       .  A
C4076      H4081   1.083       .  S
C4077      C4078   1.402       .  A
C4077      H4082   1.083       .  S
C4078      C4079   1.406       .  A
C4079      C4080   1.396       .  A
C4079      H4083   1.083       .  S
C4080      H4084   1.083       .  S
C4085      C4086   1.402       .  A
C4085      C4090   1.392       .  A
C4085      H4095   1.083       .  S
C4086      C4091   1.475       .  S
C4086      C4087   1.405       .  A
C4087      C4088   1.399       .  A
C4087      H4092   1.083       .  S
C4088      C4089   1.405       .  A
C4088      H4093   1.083       .  S
C4089      C4090   1.405       .  A
C4090      H4094   1.083       .  S
C4091      C4096   1.405       .  A
C4091      C4100   1.402       .  A
C4096      C4097   1.395       .  A
C4096      H4101   1.083       .  S
C4097      C4098   1.403       .  A
C4097      H4102   1.083       .  S
C4098      C4099   1.407       .  A
C4099      C4100   1.396       .  A
C4099      H4103   1.083       .  S
C4100      H4104   1.083       .  S
C4105      C4106   1.408       .  A
C4105      C4110   1.401       .  A
C4105      H4115   1.083       .  S
C4106      C4111   1.484       .  S
C4106      C4107   1.403       .  A
C4107      C4108   1.394       .  A
C4107      H4112   1.083       .  S
C4108      C4109   1.406       .  A
C4108      H4113   1.083       .  S
C4109      C4110   1.404       .  A
C4110      H4114   1.083       .  S
C4111      C4116   1.404       .  A
C4111      C4120   1.407       .  A
C4116      C4117   1.397       .  A
C4116      H4121   1.083       .  S
C4117      C4118   1.407       .  A
C4117      H4122   1.083       .  S
C4118      C4119   1.403       .  A
C4119      C4120   1.396       .  A
C4119      H4123   1.083       .  S
C4120      H4124   1.083       .  S
C4125      C4126   1.410       .  A
C4125      C4130   1.396       .  A
C4125      H4135   1.082       .  S
C4126      C4131   1.491       .  S
C4126      C4127   1.408       .  A
C4127      C4128   1.396       .  A
C4127      H4132   1.082       .  S
C4128      C4129   1.403       .  A
C4128      H4133   1.083       .  S
C4129      C4130   1.400       .  A
C4130      H4134   1.083       .  S
C4131      C4136   1.407       .  A
C4131      C4140   1.411       .  A
C4136      C4137   1.391       .  A
C4136      H4141   1.082       .  S
C4137      C4138   1.401       .  A
C4137      H4142   1.083       .  S
C4138      C4139   1.402       .  A
C4139      C4140   1.400       .  A
C4139      H4143   1.083       .  S
C4140      H4144   1.082       .  S
C4145      C4146   1.402       .  A
C4145      C4150   1.395       .  A
C4145      H4155   1.083       .  S
C4146      C4151   1.478       .  S
C4146      C4147   1.405       .  A
C4147      C4148   1.401       .  A
C4147      H4152   1.083       .  S
C4148      C4149   1.405       .  A
C4148      H4153   1.083       .  S
C4149      C4150   1.406       .  A
C4150      H4154   1.083       .  S
C4151      C4156   1.402       .  A
C4151      C4160   1.406       .  A
C4156      C4157   1.393       .  A
C4156      H4161   1.084       .  S
C4157      C4158   1.405       .  A
C4157      H4162   1.083       .  S
C4158      C4159   1.404       .  A
C4159      C4160   1.402       .  A
C4159      H4163   1.083       .  S
C4160      H4164   1.083       .  S
C4165      C4166   1.401       .  A
C4165      C4170   1.395       .  A
C4165      H4175   1.083       .  S
C4166      C4171   1.476       .  S
C4166      C4167   1.405       .  A
C4167      C4168   1.397       .  A
C4167      H4172   1.083       .  S
C4168      C4169   1.404       .  A
C4168      H4173   1.083       .  S
C4169      C4170   1.407       .  A
C4170      H4174   1.083       .  S
C4171      C4176   1.405       .  A
C4171      C4180   1.401       .  A
C4176      C4177   1.400       .  A
C4176      H4181   1.083       .  S
C4177      C4178   1.404       .  A
C4177      H4182   1.083       .  S
C4178      C4179   1.405       .  A
C4179      C4180   1.392       .  A
C4179      H4183   1.083       .  S
C4180      H4184   1.083       .  S
C4185      C4186   1.403       .  A
C4185      C4190   1.394       .  A
C4185      H4195   1.083       .  S
C4186      C4191   1.480       .  S
C4186      C4187   1.407       .  A
C4187      C4188   1.396       .  A
C4187      H4192   1.083       .  S
C4188      C4189   1.403       .  A
C4188      H4193   1.083       .  S
C4189      C4190   1.406       .  A
C4190      H4194   1.083       .  S
C4191      C4196   1.407       .  A
C4191      C4200   1.403       .  A
C4196      C4197   1.397       .  A
C4196      H4201   1.083       .  S
C4197      C4198   1.403       .  A
C4197      H4202   1.083       .  S
C4198      C4199   1.405       .  A
C4199      C4200   1.394       .  A
C4199      H4203   1.083       .  S
C4200      H4204   1.083       .  S
C4205      C4206   1.401       .  A
C4205      C4210   1.391       .  A
C4205      H4215   1.083       .  S
C4206      C4211   1.475       .  S
C4206      C4207   1.407       .  A
C4207      C4208   1.396       .  A
C4207      H4212   1.083       .  S
C4208      C4209   1.402       .  A
C4208      H4213   1.083       .  S
C4209      C4210   1.406       .  A
C4210      H4214   1.083       .  S
C4211      C4216   1.400       .  A
C4211      C4220   1.407       .  A
C4216      C4217   1.391       .  A
C4216      H4221   1.083       .  S
C4217      C4218   1.406       .  A
C4217      H4222   1.083       .  S
C4218      C4219   1.402       .  A
C4219      C4220   1.397       .  A
C4219      H4223   1.083       .  S
C4220      H4224   1.083       .  S
C4225      C4226   1.407       .  A
C4225      C4230   1.399       .  A
C4225      H4235   1.083       .  S
C4226      C4231   1.488       .  S
C4226      C4227   1.405       .  A
C4227      C4228   1.399       .  A
C4227      H4232   1.083       .  S
C4228      C4229   1.407       .  A
C4228      H4233   1.083       .  S
C4229      C4230   1.404       .  A
C4230      H4234   1.083       .  S
C4231      C4236   1.405       .  A
C4231      C4240   1.408       .  A
C4236      C4237   1.397       .  A
C4236      H4241   1.083       .  S
C4237      C4238   1.406       .  A
C4237      H4242   1.083       .  S
C4238      C4239   1.405       .  A
C4239      C4240   1.401       .  A
C4239      H4243   1.083       .  S
C4240      H4244   1.083       .  S
C4245      C4246   1.406       .  A
C4245      C4250   1.397       .  A
C4245      H4255   1.083       .  S
C4246      C4251   1.477       .  S
C4246      C4247   1.401       .  A
C4247      C4248   1.397       .  A
C4247      H4252   1.083       .  S
C4248      C4249   1.407       .  A
C4248      H4253   1.083       .  S
C4249      C4250   1.403       .  A
C4250      H4254   1.083       .  S
C4251      C4256   1.406       .  A
C4251      C4260   1.400       .  A
C4256      C4257   1.403       .  A
C4256      H4261   1.083       .  S
C4257      C4258   1.406       .  A
C4257      H4262   1.083       .  S
C4258      C4259   1.406       .  A
C4259      C4260   1.390       .  A
C4259      H4263   1.083       .  S
C4260      H4264   1.084       .  S
C4265      C4266   1.405       .  A
C4265      C4270   1.394       .  A
C4265      H4275   1.082       .  S
C4266      C4271   1.488       .  S
C4266      C4267   1.410       .  A
C4267      C4268   1.398       .  A
C4267      H4272   1.082       .  S
C4268      C4269   1.401       .  A
C4268      H4273   1.083       .  S
C4269      C4270   1.405       .  A
C4270      H4274   1.083       .  S
C4271      C4276   1.411       .  A
C4271      C4280   1.406       .  A
C4276      C4277   1.400       .  A
C4276      H4281   1.082       .  S
C4277      C4278   1.400       .  A
C4277      H4282   1.083       .  S
C4278      C4279   1.401       .  A
C4279      C4280   1.392       .  A
C4279      H4283   1.084       .  S
C4280      H4284   1.082       .  S
C4285      C4286   1.403       .  A
C4285      C4290   1.394       .  A
C4285      H4295   1.083       .  S
C4286      C4291   1.482       .  S
C4286      C4287   1.407       .  A
C4287      C4288   1.400       .  A
C4287      H4292   1.083       .  S
C4288      C4289   1.404       .  A
C4288      H4293   1.083       .  S
C4289      C4290   1.405       .  A
C4290      H4294   1.083       .  S
C4291      C4296   1.407       .  A
C4291      C4300   1.403       .  A
C4296      C4297   1.397       .  A
C4296      H4301   1.083       .  S
C4297      C4298   1.403       .  A
C4297      H4302   1.083       .  S
C4298      C4299   1.407       .  A
C4299      C4300   1.397       .  A
C4299      H4303   1.083       .  S
C4300      H4304   1.083       .  S
C4305      C4306   1.405       .  A
C4305      C4310   1.398       .  A
C4305      H4315   1.083       .  S
C4306      C4311   1.478       .  S
C4306      C4307   1.401       .  A
C4307      C4308   1.399       .  A
C4307      H4312   1.083       .  S
C4308      C4309   1.408       .  A
C4308      H4313   1.083       .  S
C4309      C4310   1.404       .  A
C4310      H4314   1.083       .  S
C4311      C4316   1.400       .  A
C4311      C4320   1.406       .  A
C4316      C4317   1.391       .  A
C4316      H4321   1.083       .  S
C4317      C4318   1.407       .  A
C4317      H4322   1.083       .  S
C4318      C4319   1.406       .  A
C4319      C4320   1.405       .  A
C4319      H4323   1.083       .  S
C4320      H4324   1.083       .  S
C4325      C4326   1.401       .  A
C4325      C4330   1.391       .  A
C4325      H4335   1.083       .  S
C4326      C4331   1.476       .  S
C4326      C4327   1.406       .  A
C4327      C4328   1.399       .  A
C4327      H4332   1.083       .  S
C4328      C4329   1.404       .  A
C4328      H4333   1.083       .  S
C4329      C4330   1.405       .  A
C4330      H4334   1.083       .  S
C4331      C4336   1.405       .  A
C4331      C4340   1.402       .  A
C4336      C4337   1.393       .  A
C4336      H4341   1.083       .  S
C4337      C4338   1.402       .  A
C4337      H4342   1.083       .  S
C4338      C4339   1.407       .  A
C4339      C4340   1.396       .  A
C4339      H4343   1.083       .  S
C4340      H4344   1.083       .  S
C4345      C4346   1.408       .  A
C4345      C4350   1.396       .  A
C4345      H4355   1.082       .  S
C4346      C4351   1.492       .  S
C4346      C4347   1.410       .  A
C4347      C4348   1.397       .  A
C4347      H4352   1.082       .  S
C4348      C4349   1.401       .  A
C4348      H4353   1.083       .  S
C4349      C4350   1.402       .  A
C4350      H4354   1.083   1_554  S
C4351      C4356   1.410       .  A
C4351      C4360   1.407       .  A
C4356      C4357   1.400       .  A
C4356      H4361   1.082       .  S
C4357      C4358   1.402       .  A
C4357      H4362   1.083       .  S
C4358      C4359   1.402       .  A
C4359      C4360   1.393       .  A
C4359      H4363   1.083   1_554  S
C4360      H4364   1.082       .  S
C4365      C4366   1.402       .  A
C4365      C4370   1.391       .  A
C4365      H4375   1.083       .  S
C4366      C4371   1.479       .  S
C4366      C4367   1.407       .  A
C4367      C4368   1.400       .  A
C4367      H4372   1.083       .  S
C4368      C4369   1.404       .  A
C4368      H4373   1.083       .  S
C4369      C4370   1.406       .  A
C4370      H4374   1.083       .  S
C4371      C4376   1.403       .  A
C4371      C4380   1.406       .  A
C4376      C4377   1.395       .  A
C4376      H4381   1.083       .  S
C4377      C4378   1.405       .  A
C4377      H4382   1.083       .  S
C4378      C4379   1.403       .  A
C4379      C4380   1.396       .  A
C4379      H4383   1.083       .  S
C4380      H4384   1.083       .  S
C4385      C4386   1.411       .  A
C4385      C4390   1.399       .  A
C4385      H4395   1.082       .  S
C4386      C4391   1.490       .  S
C4386      C4387   1.406       .  A
C4387      C4388   1.393       .  A
C4387      H4392   1.082       .  S
C4388      C4389   1.403       .  A
C4388      H4393   1.083       .  S
C4389      C4390   1.401       .  A
C4390      H4394   1.083       .  S
C4391      C4396   1.406       .  A
C4391      C4400   1.411       .  A
C4396      C4397   1.394       .  A
C4396      H4401   1.082       .  S
C4397      C4398   1.403       .  A
C4397      H4402   1.083       .  S
C4398      C4399   1.400       .  A
C4399      C4400   1.398       .  A
C4399      H4403   1.083       .  S
C4400      H4404   1.082       .  S
C4405      C4406   1.406       .  A
C4405      C4410   1.402       .  A
C4405      H4415   1.083       .  S
C4406      C4411   1.479       .  S
C4406      C4407   1.402       .  A
C4407      C4408   1.392       .  A
C4407      H4412   1.083       .  S
C4408      C4409   1.405       .  A
C4408      H4413   1.083       .  S
C4409      C4410   1.405       .  A
C4410      H4414   1.083       .  S
C4411      C4416   1.403       .  A
C4411      C4420   1.405       .  A
C4416      C4417   1.397       .  A
C4416      H4421   1.083       .  S
C4417      C4418   1.407       .  A
C4417      H4422   1.083       .  S
C4418      C4419   1.404       .  A
C4419      C4420   1.396       .  A
C4419      H4423   1.083       .  S
C4420      H4424   1.083       .  S
C4425      C4426   1.406       .  A
C4425      C4430   1.396       .  A
C4425      H4435   1.083       .  S
C4426      C4431   1.480       .  S
C4426      C4427   1.403       .  A
C4427      C4428   1.394       .  A
C4427      H4432   1.083       .  S
C4428      C4429   1.405       .  A
C4428      H4433   1.083       .  S
C4429      C4430   1.403       .  A
C4430      H4434   1.083       .  S
C4431      C4436   1.403       .  A
C4431      C4440   1.407       .  A
C4436      C4437   1.393       .  A
C4436      H4441   1.083       .  S
C4437      C4438   1.405       .  A
C4437      H4442   1.083       .  S
C4438      C4439   1.404       .  A
C4439      C4440   1.397       .  A
C4439      H4443   1.083       .  S
C4440      H4444   1.083       .  S
C4445      C4446   1.412       .  A
C4445      C4450   1.401       .  A
C4445      H4455   1.081       .  S
C4446      C4451   1.499       .  S
C4446      C4447   1.409       .  A
C4447      C4448   1.397       .  A
C4447      H4452   1.081       .  S
C4448      C4449   1.403       .  A
C4448      H4453   1.083       .  S
C4449      C4450   1.401       .  A
C4450      H4454   1.083       .  S
C4451      C4456   1.409       .  A
C4451      C4460   1.412       .  A
C4456      C4457   1.396       .  A
C4456      H4461   1.081       .  S
C4457      C4458   1.403       .  A
C4457      H4462   1.083       .  S
C4458      C4459   1.402       .  A
C4459      C4460   1.401       .  A
C4459      H4463   1.083       .  S
C4460      H4464   1.081       .  S
C4465      C4466   1.404       .  A
C4465      C4470   1.397       .  A
C4465      H4475   1.083       .  S
C4466      C4471   1.472       .  S
C4466      C4467   1.400       .  A
C4467      C4468   1.396       .  A
C4467      H4472   1.083       .  S
C4468      C4469   1.407       .  A
C4468      H4473   1.083       .  S
C4469      C4470   1.404       .  A
C4470      H4474   1.083       .  S
C4471      C4476   1.404       .  A
C4471      C4480   1.399       .  A
C4476      C4477   1.402       .  A
C4476      H4481   1.083       .  S
C4477      C4478   1.406       .  A
C4477      H4482   1.083       .  S
C4478      C4479   1.406       .  A
C4479      C4480   1.391       .  A
C4479      H4483   1.083       .  S
C4480      H4484   1.084       .  S
C4485      C4486   1.402       .  A
C4485      C4490   1.396       .  A
C4485      H4495   1.083       .  S
C4486      C4491   1.479       .  S
C4486      C4487   1.407       .  A
C4487      C4488   1.398       .  A
C4487      H4492   1.083       .  S
C4488      C4489   1.403       .  A
C4488      H4493   1.083       .  S
C4489      C4490   1.406       .  A
C4490      H4494   1.083       .  S
C4491      C4496   1.407       .  A
C4491      C4500   1.401       .  A
C4496      C4497   1.402       .  A
C4496      H4501   1.083       .  S
C4497      C4498   1.405       .  A
C4497      H4502   1.083       .  S
C4498      C4499   1.407       .  A
C4499      C4500   1.392       .  A
C4499      H4503   1.083       .  S
C4500      H4504   1.083       .  S
C4505      C4506   1.404       .  A
C4505      C4510   1.397       .  A
C4505      H4515   1.083       .  S
C4506      C4511   1.487       .  S
C4506      C4507   1.408       .  A
C4507      C4508   1.401       .  A
C4507      H4512   1.083       .  S
C4508      C4509   1.404       .  A
C4508      H4513   1.083       .  S
C4509      C4510   1.407       .  A
C4510      H4514   1.083       .  S
C4511      C4516   1.408       .  A
C4511      C4520   1.404       .  A
C4516      C4517   1.400       .  A
C4516      H4521   1.083       .  S
C4517      C4518   1.404       .  A
C4517      H4522   1.083       .  S
C4518      C4519   1.407       .  A
C4519      C4520   1.397       .  A
C4519      H4523   1.083       .  S
C4520      H4524   1.083       .  S
C4525      C4526   1.407       .  A
C4525      C4530   1.395       .  A
C4525      H4535   1.082       .  S
C4526      C4531   1.493   1_455  S
C4526      C4527   1.411       .  A
C4527      C4528   1.399       .  A
C4527      H4532   1.082   1_455  S
C4528      C4529   1.401       .  A
C4528      H4533   1.083       .  S
C4529      C4530   1.403       .  A
C4530      H4534   1.083       .  S
C4531      C4536   1.411   1_655  A
C4531      C4540   1.408       .  A
C4536      C4537   1.399   1_455  A
C4536      H4541   1.082       .  S
C4537      C4538   1.402       .  A
C4537      H4542   1.083   1_655  S
C4538      C4539   1.402       .  A
C4539      C4540   1.395       .  A
C4539      H4543   1.083       .  S
C4540      H4544   1.082       .  S
C4545      C4546   1.401       .  A
C4545      C4550   1.390       .  A
C4545      H4555   1.083       .  S
C4546      C4551   1.471       .  S
C4546      C4547   1.405       .  A
C4547      C4548   1.394       .  A
C4547      H4552   1.083       .  S
C4548      C4549   1.402       .  A
C4548      H4553   1.083       .  S
C4549      C4550   1.405       .  A
C4550      H4554   1.083       .  S
C4551      C4556   1.400       .  A
C4551      C4560   1.405       .  A
C4556      C4557   1.390       .  A
C4556      H4561   1.083       .  S
C4557      C4558   1.406       .  A
C4557      H4562   1.083       .  S
C4558      C4559   1.402       .  A
C4559      C4560   1.394       .  A
C4559      H4563   1.083       .  S
C4560      H4564   1.083       .  S
C4565      C4566   1.404       .  A
C4565      C4570   1.400       .  A
C4565      H4575   1.083       .  S
C4566      C4571   1.487       .  S
C4566      C4567   1.408       .  A
C4567      C4568   1.400       .  A
C4567      H4572   1.083       .  S
C4568      C4569   1.404       .  A
C4568      H4573   1.083       .  S
C4569      C4570   1.407       .  A
C4570      H4574   1.083       .  S
C4571      C4576   1.402       .  A
C4571      C4580   1.408       .  A
C4576      C4577   1.394       .  A
C4576      H4581   1.083       .  S
C4577      C4578   1.407       .  A
C4577      H4582   1.083       .  S
C4578      C4579   1.406       .  A
C4579      C4580   1.405       .  A
C4579      H4583   1.083       .  S
C4580      H4584   1.083       .  S
C4585      C4586   1.405       .  A
C4585      C4590   1.394       .  A
C4585      H4595   1.082       .  S
C4586      C4591   1.482       .  S
C4586      C4587   1.409       .  A
C4587      C4588   1.394       .  A
C4587      H4592   1.082       .  S
C4588      C4589   1.399       .  A
C4588      H4593   1.083       .  S
C4589      C4590   1.403       .  A
C4590      H4594   1.083       .  S
C4591      C4596   1.410       .  A
C4591      C4600   1.404       .  A
C4596      C4597   1.400       .  A
C4596      H4601   1.082       .  S
C4597      C4598   1.401       .  A
C4597      H4602   1.083       .  S
C4598      C4599   1.402       .  A
C4599      C4600   1.388       .  A
C4599      H4603   1.084       .  S
C4600      H4604   1.082       .  S
C4605      C4606   1.407       .  A
C4605      C4610   1.398       .  A
C4605      H4615   1.083       .  S
C4606      C4611   1.482       .  S
C4606      C4607   1.403       .  A
C4607      C4608   1.394       .  A
C4607      H4612   1.083       .  S
C4608      C4609   1.406       .  A
C4608      H4613   1.083       .  S
C4609      C4610   1.404       .  A
C4610      H4614   1.083       .  S
C4611      C4616   1.403       .  A
C4611      C4620   1.407       .  A
C4616      C4617   1.394       .  A
C4616      H4621   1.083       .  S
C4617      C4618   1.405       .  A
C4617      H4622   1.083       .  S
C4618      C4619   1.403       .  A
C4619      C4620   1.397       .  A
C4619      H4623   1.083       .  S
C4620      H4624   1.083       .  S
C4625      C4626   1.404       .  A
C4625      C4630   1.397       .  A
C4625      H4635   1.083       .  S
C4626      C4631   1.473       .  S
C4626      C4627   1.403       .  A
C4627      C4628   1.393       .  A
C4627      H4632   1.083       .  S
C4628      C4629   1.403       .  A
C4628      H4633   1.083       .  S
C4629      C4630   1.403       .  A
C4630      H4634   1.083       .  S
C4631      C4636   1.400       .  A
C4631      C4640   1.405       .  A
C4636      C4637   1.392       .  A
C4636      H4641   1.083       .  S
C4637      C4638   1.406       .  A
C4637      H4642   1.083       .  S
C4638      C4639   1.403       .  A
C4639      C4640   1.398       .  A
C4639      H4643   1.083       .  S
C4640      H4644   1.083       .  S
C4645      C4646   1.406       .  A
C4645      C4650   1.396       .  A
C4645      H4655   1.083       .  S
C4646      C4651   1.479       .  S
C4646      C4647   1.403       .  A
C4647      C4648   1.394       .  A
C4647      H4652   1.083       .  S
C4648      C4649   1.406       .  A
C4648      H4653   1.083       .  S
C4649      C4650   1.403       .  A
C4650      H4654   1.083       .  S
C4651      C4656   1.404       .  A
C4651      C4660   1.406       .  A
C4656      C4657   1.394       .  A
C4656      H4661   1.083       .  S
C4657      C4658   1.404       .  A
C4657      H4662   1.083       .  S
C4658      C4659   1.404       .  A
C4659      C4660   1.396       .  A
C4659      H4663   1.083       .  S
C4660      H4664   1.083       .  S
C4665      C4666   1.404       .  A
C4665      C4670   1.400       .  A
C4665      H4675   1.083       .  S
C4666      C4671   1.471       .  S
C4666      C4667   1.401       .  A
C4667      C4668   1.392       .  A
C4667      H4672   1.083       .  S
C4668      C4669   1.403       .  A
C4668      H4673   1.083       .  S
C4669      C4670   1.404       .  A
C4670      H4674   1.083       .  S
C4671      C4676   1.404       .  A
C4671      C4680   1.400       .  A
C4676      C4677   1.399       .  A
C4676      H4681   1.083       .  S
C4677      C4678   1.404       .  A
C4677      H4682   1.083       .  S
C4678      C4679   1.405       .  A
C4679      C4680   1.393       .  A
C4679      H4683   1.083       .  S
C4680      H4684   1.083       .  S
C4685      C4686   1.409       .  A
C4685      C4690   1.397       .  A
C4685      H4695   1.082       .  S
C4686      C4691   1.481       .  S
C4686      C4687   1.404       .  A
C4687      C4688   1.389       .  A
C4687      H4692   1.082       .  S
C4688      C4689   1.401       .  A
C4688      H4693   1.084       .  S
C4689      C4690   1.400       .  A
C4690      H4694   1.083       .  S
C4691      C4696   1.404       .  A
C4691      C4700   1.409       .  A
C4696      C4697   1.391       .  A
C4696      H4701   1.082       .  S
C4697      C4698   1.403       .  A
C4697      H4702   1.083       .  S
C4698      C4699   1.400       .  A
C4699      C4700   1.396       .  A
C4699      H4703   1.083       .  S
C4700      H4704   1.082       .  S
C4705      C4706   1.407   1_655  A
C4705      C4710   1.399   1_655  A
C4705      H4715   1.083       .  S
C4706      C4711   1.481   1_455  S
C4706      C4707   1.402       .  A
C4707      C4708   1.393       .  A
C4707      H4712   1.083       .  S
C4708      C4709   1.406       .  A
C4708      H4713   1.083       .  S
C4709      C4710   1.403       .  A
C4710      H4714   1.083       .  S
C4711      C4716   1.403       .  A
C4711      C4720   1.407   1_655  A
C4716      C4717   1.396       .  A
C4716      H4721   1.083       .  S
C4717      C4718   1.407       .  A
C4717      H4722   1.083       .  S
C4718      C4719   1.403   1_655  A
C4719      C4720   1.396       .  A
C4719      H4723   1.083       .  S
C4720      H4724   1.083       .  S
C4725      C4726   1.399       .  A
C4725      C4730   1.390       .  A
C4725      H4735   1.084       .  S
C4726      C4731   1.467       .  S
C4726      C4727   1.403       .  A
C4727      C4728   1.398       .  A
C4727      H4732   1.083       .  S
C4728      C4729   1.404       .  A
C4728      H4733   1.083       .  S
C4729      C4730   1.406       .  A
C4730      H4734   1.083       .  S
C4731      C4736   1.404       .  A
C4731      C4740   1.399       .  A
C4736      C4737   1.395       .  A
C4736      H4741   1.083       .  S
C4737      C4738   1.402       .  A
C4737      H4742   1.083       .  S
C4738      C4739   1.406       .  A
C4739      C4740   1.393       .  A
C4739      H4743   1.083       .  S
C4740      H4744   1.083       .  S
C4745      C4746   1.403       .  A
C4745      C4750   1.394       .  A
C4745      H4755   1.083       .  S
C4746      C4751   1.478       .  S
C4746      C4747   1.405       .  A
C4747      C4748   1.396       .  A
C4747      H4752   1.083       .  S
C4748      C4749   1.404       .  A
C4748      H4753   1.083       .  S
C4749      C4750   1.405       .  A
C4750      H4754   1.083       .  S
C4751      C4756   1.405       .  A
C4751      C4760   1.403       .  A
C4756      C4757   1.395       .  A
C4756      H4761   1.083       .  S
C4757      C4758   1.404       .  A
C4757      H4762   1.083       .  S
C4758      C4759   1.405       .  A
C4759      C4760   1.395       .  A
C4759      H4763   1.083       .  S
C4760      H4764   1.083       .  S
C4765      C4766   1.410       .  A
C4765      C4770   1.398       .  A
C4765      H4775   1.082       .  S
C4766      C4771   1.491       .  S
C4766      C4767   1.407       .  A
C4767      C4768   1.395       .  A
C4767      H4772   1.082       .  S
C4768      C4769   1.402       .  A
C4768      H4773   1.083       .  S
C4769      C4770   1.401       .  A
C4770      H4774   1.083       .  S
C4771      C4776   1.407       .  A
C4771      C4780   1.411       .  A
C4776      C4777   1.393       .  A
C4776      H4781   1.082       .  S
C4777      C4778   1.403       .  A
C4777      H4782   1.083       .  S
C4778      C4779   1.401       .  A
C4779      C4780   1.399       .  A
C4779      H4783   1.083       .  S
C4780      H4784   1.082       .  S
C4785      C4786   1.405       .  A
C4785      C4790   1.397       .  A
C4785      H4795   1.083       .  S
C4786      C4791   1.479       .  S
C4786      C4787   1.403       .  A
C4787      C4788   1.395       .  A
C4787      H4792   1.083       .  S
C4788      C4789   1.406       .  A
C4788      H4793   1.083       .  S
C4789      C4790   1.404       .  A
C4790      H4794   1.083       .  S
C4791      C4796   1.406       .  A
C4791      C4800   1.402       .  A
C4796      C4797   1.399       .  A
C4796      H4801   1.083       .  S
C4797      C4798   1.404       .  A
C4797      H4802   1.083       .  S
C4798      C4799   1.405       .  A
C4799      C4800   1.394       .  A
C4799      H4803   1.083       .  S
C4800      H4804   1.083       .  S
C4805      C4806   1.399       .  A
C4805      C4810   1.389       .  A
C4805      H4815   1.083       .  S
C4806      C4811   1.471       .  S
C4806      C4807   1.405       .  A
C4807      C4808   1.400       .  A
C4807      H4812   1.083       .  S
C4808      C4809   1.404       .  A
C4808      H4813   1.083       .  S
C4809      C4810   1.406       .  A
C4810      H4814   1.083       .  S
C4811      C4816   1.405       .  A
C4811      C4820   1.400       .  A
C4816      C4817   1.396       .  A
C4816      H4821   1.083       .  S
C4817      C4818   1.403       .  A
C4817      H4822   1.083       .  S
C4818      C4819   1.406       .  A
C4819      C4820   1.393       .  A
C4819      H4823   1.083       .  S
C4820      H4824   1.083       .  S
C4825      C4826   1.410       .  A
C4825      C4830   1.398       .  A
C4825      H4835   1.082       .  S
C4826      C4831   1.483       .  S
C4826      C4827   1.404       .  A
C4827      C4828   1.389       .  A
C4827      H4832   1.082       .  S
C4828      C4829   1.402       .  A
C4828      H4833   1.084       .  S
C4829      C4830   1.400       .  A
C4830      H4834   1.083       .  S
C4831      C4836   1.404       .  A
C4831      C4840   1.410       .  A
C4836      C4837   1.391       .  A
C4836      H4841   1.082       .  S
C4837      C4838   1.403       .  A
C4837      H4842   1.083       .  S
C4838      C4839   1.400       .  A
C4839      C4840   1.397       .  A
C4839      H4843   1.083       .  S
C4840      H4844   1.082       .  S
C4845      C4846   1.403       .  A
C4845      C4850   1.396       .  A
C4845      H4855   1.083       .  S
C4846      C4851   1.484   1_655  S
C4846      C4847   1.407   1_654  A
C4847      C4848   1.397   1_455  A
C4847      H4852   1.082       .  S
C4848      C4849   1.403   1_556  A
C4848      H4853   1.083   1_655  S
C4849      C4850   1.407       .  A
C4850      H4854   1.083       .  S
C4851      C4856   1.407   1_554  A
C4851      C4860   1.404       .  A
C4856      C4857   1.400       .  A
C4856      H4861   1.085   1_455  S
C4857      C4858   1.405       .  A
C4857      H4862   1.081       .  S
C4858      C4859   1.406   1_556  A
C4859      C4860   1.394       .  A
C4859      H4863   1.085       .  S
C4860      H4864   1.081       .  S
C4865      C4866   1.407       .  A
C4865      C4870   1.399       .  A
C4865      H4875   1.083       .  S
C4866      C4871   1.484       .  S
C4866      C4867   1.403       .  A
C4867      C4868   1.396       .  A
C4867      H4872   1.083       .  S
C4868      C4869   1.407       .  A
C4868      H4873   1.083       .  S
C4869      C4870   1.403       .  A
C4870      H4874   1.083       .  S
C4871      C4876   1.403       .  A
C4871      C4880   1.407       .  A
C4876      C4877   1.395       .  A
C4876      H4881   1.083       .  S
C4877      C4878   1.407       .  A
C4877      H4882   1.083       .  S
C4878      C4879   1.404       .  A
C4879      C4880   1.400       .  A
C4879      H4883   1.083       .  S
C4880      H4884   1.083       .  S
C4885      C4886   1.407   1_655  A
C4885      C4890   1.392       .  A
C4885      H4895   1.082       .  S
C4886      C4891   1.488       .  S
C4886      C4887   1.410       .  A
C4887      C4888   1.397       .  A
C4887      H4892   1.082       .  S
C4888      C4889   1.401   1_455  A
C4888      H4893   1.083       .  S
C4889      C4890   1.402       .  A
C4890      H4894   1.083       .  S
C4891      C4896   1.410       .  A
C4891      C4900   1.407   1_455  A
C4896      C4897   1.397       .  A
C4896      H4901   1.082       .  S
C4897      C4898   1.400   1_455  A
C4897      H4902   1.083       .  S
C4898      C4899   1.401       .  A
C4899      C4900   1.393       .  A
C4899      H4903   1.084       .  S
C4900      H4904   1.082       .  S
C4905      C4906   1.401       .  A
C4905      C4910   1.394       .  A
C4905      H4915   1.083       .  S
C4906      C4911   1.473       .  S
C4906      C4907   1.405       .  A
C4907      C4908   1.394       .  A
C4907      H4912   1.083       .  S
C4908      C4909   1.402       .  A
C4908      H4913   1.083       .  S
C4909      C4910   1.406       .  A
C4910      H4914   1.083       .  S
C4911      C4916   1.405       .  A
C4911      C4920   1.400       .  A
C4916      C4917   1.400       .  A
C4916      H4921   1.083       .  S
C4917      C4918   1.404       .  A
C4917      H4922   1.083       .  S
C4918      C4919   1.405       .  A
C4919      C4920   1.389       .  A
C4919      H4923   1.083       .  S
C4920      H4924   1.083       .  S
C4925      C4926   1.405       .  A
C4925      C4930   1.389       .  A
C4925      H4935   1.082       .  S
C4926      C4931   1.487       .  S
C4926      C4927   1.412       .  A
C4927      C4928   1.401       .  A
C4927      H4932   1.082       .  S
C4928      C4929   1.400       .  A
C4928      H4933   1.083       .  S
C4929      C4930   1.400       .  A
C4930      H4934   1.084       .  S
C4931      C4936   1.411       .  A
C4931      C4940   1.404       .  A
C4936      C4937   1.397       .  A
C4936      H4941   1.082       .  S
C4937      C4938   1.400       .  A
C4937      H4942   1.083       .  S
C4938      C4939   1.406       .  A
C4939      C4940   1.394       .  A
C4939      H4943   1.083       .  S
C4940      H4944   1.082       .  S
C4945      C4946   1.408       .  A
C4945      C4950   1.399       .  A
C4945      H4955   1.083       .  S
C4946      C4951   1.489       .  S
C4946      C4947   1.405   1_554  A
C4947      C4948   1.398       .  A
C4947      H4952   1.083       .  S
C4948      C4949   1.406       .  A
C4948      H4953   1.083       .  S
C4949      C4950   1.404   1_556  A
C4950      H4954   1.083       .  S
C4951      C4956   1.405       .  A
C4951      C4960   1.408       .  A
C4956      C4957   1.397       .  A
C4956      H4961   1.083       .  S
C4957      C4958   1.406       .  A
C4957      H4962   1.083       .  S
C4958      C4959   1.404       .  A
C4959      C4960   1.399       .  A
C4959      H4963   1.083       .  S
C4960      H4964   1.083   1_554  S
C4965      C4966   1.405       .  A
C4965      C4970   1.396       .  A
C4965      H4975   1.083       .  S
C4966      C4971   1.479       .  S
C4966      C4967   1.403       .  A
C4967      C4968   1.400       .  A
C4967      H4972   1.083       .  S
C4968      C4969   1.408       .  A
C4968      H4973   1.083       .  S
C4969      C4970   1.404       .  A
C4970      H4974   1.083       .  S
C4971      C4976   1.406       .  A
C4971      C4980   1.401       .  A
C4976      C4977   1.404       .  A
C4976      H4981   1.083       .  S
C4977      C4978   1.406       .  A
C4977      H4982   1.083       .  S
C4978      C4979   1.406       .  A
C4979      C4980   1.391       .  A
C4979      H4983   1.083       .  S
C4980      H4984   1.083       .  S
C4985      C4986   1.407       .  A
C4985      C4990   1.396       .  A
C4985      H4995   1.083       .  S
C4986      C4991   1.478       .  S
C4986      C4987   1.402       .  A
C4987      C4988   1.392       .  A
C4987      H4992   1.083       .  S
C4988      C4989   1.405       .  A
C4988      H4993   1.083       .  S
C4989      C4990   1.403       .  A
C4990      H4994   1.083       .  S
C4991      C4996   1.403       .  A
C4991      C5000   1.407       .  A
C4996      C4997   1.393       .  A
C4996      H5001   1.083       .  S
C4997      C4998   1.405       .  A
C4997      H5002   1.083       .  S
C4998      C4999   1.402       .  A
C4999      C5000   1.395       .  A
C4999      H5003   1.083       .  S
C5000      H5004   1.083       .  S
C5005      C5006   1.411       .  A
C5005      C5010   1.398       .  A
C5005      H5015   1.082       .  S
C5006      C5011   1.496       .  S
C5006      C5007   1.408   1_554  A
C5007      C5008   1.399       .  A
C5007      H5012   1.082       .  S
C5008      C5009   1.404       .  A
C5008      H5013   1.083       .  S
C5009      C5010   1.401   1_556  A
C5010      H5014   1.083       .  S
C5011      C5016   1.408       .  A
C5011      C5020   1.412       .  A
C5016      C5017   1.394       .  A
C5016      H5021   1.082       .  S
C5017      C5018   1.403       .  A
C5017      H5022   1.083       .  S
C5018      C5019   1.403       .  A
C5019      C5020   1.403       .  A
C5019      H5023   1.083       .  S
C5020      H5024   1.082   1_554  S
C5025      C5026   1.405       .  A
C5025      C5030   1.401       .  A
C5025      H5035   1.083       .  S
C5026      C5031   1.475       .  S
C5026      C5027   1.402       .  A
C5027      C5028   1.392       .  A
C5027      H5032   1.083       .  S
C5028      C5029   1.403       .  A
C5028      H5033   1.083       .  S
C5029      C5030   1.404       .  A
C5030      H5034   1.083       .  S
C5031      C5036   1.404       .  A
C5031      C5040   1.402       .  A
C5036      C5037   1.400       .  A
C5036      H5041   1.083       .  S
C5037      C5038   1.405       .  A
C5037      H5042   1.083       .  S
C5038      C5039   1.405       .  A
C5039      C5040   1.394       .  A
C5039      H5043   1.083       .  S
C5040      H5044   1.083       .  S
C5045      C5046   1.407       .  A
C5045      C5050   1.400       .  A
C5045      H5055   1.083       .  S
C5046      C5051   1.482       .  S
C5046      C5047   1.403       .  A
C5047      C5048   1.393       .  A
C5047      H5052   1.083       .  S
C5048      C5049   1.405       .  A
C5048      H5053   1.083       .  S
C5049      C5050   1.404       .  A
C5050      H5054   1.083       .  S
C5051      C5056   1.404       .  A
C5051      C5060   1.406       .  A
C5056      C5057   1.397       .  A
C5056      H5061   1.083       .  S
C5057      C5058   1.407       .  A
C5057      H5062   1.083       .  S
C5058      C5059   1.403       .  A
C5059      C5060   1.396       .  A
C5059      H5063   1.083       .  S
C5060      H5064   1.083       .  S
C5065      C5066   1.406       .  A
C5065      C5070   1.397       .  A
C5065      H5075   1.082       .  S
C5066      C5071   1.488   1_655  S
C5066      C5067   1.409   1_655  A
C5067      C5068   1.396   1_455  A
C5067      H5072   1.082       .  S
C5068      C5069   1.400       .  A
C5068      H5073   1.083   1_655  S
C5069      C5070   1.405       .  A
C5070      H5074   1.083       .  S
C5071      C5076   1.411   1_455  A
C5071      C5080   1.405       .  A
C5076      C5077   1.403   1_655  A
C5076      H5081   1.082       .  S
C5077      C5078   1.403       .  A
C5077      H5082   1.083   1_455  S
C5078      C5079   1.401       .  A
C5079      C5080   1.390       .  A
C5079      H5083   1.084       .  S
C5080      H5084   1.082       .  S
C5085      C5086   1.406       .  A
C5085      C5090   1.397       .  A
C5085      H5095   1.083       .  S
C5086      C5091   1.476       .  S
C5086      C5087   1.401       .  A
C5087      C5088   1.395       .  A
C5087      H5092   1.083       .  S
C5088      C5089   1.407       .  A
C5088      H5093   1.083       .  S
C5089      C5090   1.402       .  A
C5090      H5094   1.083       .  S
C5091      C5096   1.401       .  A
C5091      C5100   1.406       .  A
C5096      C5097   1.391       .  A
C5096      H5101   1.083       .  S
C5097      C5098   1.406       .  A
C5097      H5102   1.083       .  S
C5098      C5099   1.405       .  A
C5099      C5100   1.401       .  A
C5099      H5103   1.083       .  S
C5100      H5104   1.083       .  S
C5105      C5106   1.406       .  A
C5105      C5110   1.396       .  A
C5105      H5115   1.083       .  S
C5106      C5111   1.479       .  S
C5106      C5107   1.403       .  A
C5107      C5108   1.395       .  A
C5107      H5112   1.083       .  S
C5108      C5109   1.406       .  A
C5108      H5113   1.083       .  S
C5109      C5110   1.404       .  A
C5110      H5114   1.083       .  S
C5111      C5116   1.407       .  A
C5111      C5120   1.402       .  A
C5116      C5117   1.398       .  A
C5116      H5121   1.083       .  S
C5117      C5118   1.403       .  A
C5117      H5122   1.083       .  S
C5118      C5119   1.406       .  A
C5119      C5120   1.393       .  A
C5119      H5123   1.083       .  S
C5120      H5124   1.083       .  S
C5125      C5126   1.407       .  A
C5125      C5130   1.401       .  A
C5125      H5135   1.083       .  S
C5126      C5131   1.487       .  S
C5126      C5127   1.404       .  A
C5127      C5128   1.396       .  A
C5127      H5132   1.083       .  S
C5128      C5129   1.406       .  A
C5128      H5133   1.083       .  S
C5129      C5130   1.405       .  A
C5130      H5134   1.083       .  S
C5131      C5136   1.404       .  A
C5131      C5140   1.407       .  A
C5136      C5137   1.400       .  A
C5136      H5141   1.083       .  S
C5137      C5138   1.407       .  A
C5137      H5142   1.083       .  S
C5138      C5139   1.404       .  A
C5139      C5140   1.399       .  A
C5139      H5143   1.083       .  S
C5140      H5144   1.083       .  S
C5145      C5146   1.406       .  A
C5145      C5150   1.398       .  A
C5145      H5155   1.083       .  S
C5146      C5151   1.478       .  S
C5146      C5147   1.402       .  A
C5147      C5148   1.396       .  A
C5147      H5152   1.083       .  S
C5148      C5149   1.406       .  A
C5148      H5153   1.083       .  S
C5149      C5150   1.403       .  A
C5150      H5154   1.083       .  S
C5151      C5156   1.402       .  A
C5151      C5160   1.405       .  A
C5156      C5157   1.394       .  A
C5156      H5161   1.083       .  S
C5157      C5158   1.406       .  A
C5157      H5162   1.083       .  S
C5158      C5159   1.405       .  A
C5159      C5160   1.400       .  A
C5159      H5163   1.083       .  S
C5160      H5164   1.083       .  S
C5165      C5166   1.405       .  A
C5165      C5170   1.397       .  A
C5165      H5175   1.083       .  S
C5166      C5171   1.478       .  S
C5166      C5167   1.402       .  A
C5167      C5168   1.398       .  A
C5167      H5172   1.083       .  S
C5168      C5169   1.406       .  A
C5168      H5173   1.083       .  S
C5169      C5170   1.403       .  A
C5170      H5174   1.083       .  S
C5171      C5176   1.405       .  A
C5171      C5180   1.401       .  A
C5176      C5177   1.402       .  A
C5176      H5181   1.083       .  S
C5177      C5178   1.406       .  A
C5177      H5182   1.083       .  S
C5178      C5179   1.406       .  A
C5179      C5180   1.392       .  A
C5179      H5183   1.083       .  S
C5180      H5184   1.083       .  S
