geometry optimzed in LAMMPS
_audit_creation_date              2020-12-01 
_audit_creation_method            'lammps2cif' 
_symmetry_space_group_name_H-M    'P1' 
_symmetry_Int_Tables_number       1 
_symmetry_cell_setting            triclinic 
loop_ 
_symmetry_equiv_pos_as_xyz 
  x,y,z 
_cell_length_a                    34.39893504 
_cell_length_b                    34.409266612634106 
_cell_length_c                    32.290166570251245 
_cell_angle_alpha                 90.07701245533292 
_cell_angle_beta                  89.9239255217721 
_cell_angle_gamma                 119.9056307233111 
loop_ 
_atom_site_label 
_atom_site_type_symbol 
_atom_site_fract_x 
_atom_site_fract_y 
_atom_site_fract_z 
_atom_site_charge 
O1          O  0.73679372  0.97245462  0.40865371    -0.71300
O2          O  0.78647750  0.89548334  0.42907776    -0.71300
O3          O  0.72552017  0.89436986  0.37565249    -0.71400
O4          O  0.79873554  0.97371945  0.46095956    -0.71400
O5          O  0.74497111  0.93620331  0.50777803    -0.71400
O6          O  0.67129013  0.85555355  0.42170005    -0.71300
O7          O  0.73225236  0.85794775  0.47550071    -0.71300
O8          O  0.68287234  0.93351249  0.45490415    -0.71400
Ni9        Ni  0.76378098  0.93540086  0.41686659     1.25400
Ni10       Ni  0.70586082  0.89441381  0.46657208     1.25400
C11         C  0.70195867  0.96575432  0.42911182     0.90900
C12         C  0.76712570  0.86409348  0.45590119     0.90800
C13         C  0.68697447  0.86143387  0.38475584     0.90900
C14         C  0.78398350  0.96836805  0.49803931     0.91000
O15         O  0.64084356  0.06835876  0.43582060    -0.71300
O16         O  0.56382117  0.11803800  0.41564489    -0.71300
O17         O  0.56277401  0.05705856  0.46895754    -0.71400
O18         O  0.64203233  0.13032207  0.38361790    -0.71400
O19         O  0.60444214  0.07661086  0.33678270    -0.71400
O20         O  0.52388296  0.00288458  0.42289350    -0.71300
O21         O  0.52621120  0.06386987  0.36920146    -0.71300
O22         O  0.60183064  0.01448845  0.38955715    -0.71400
Ni23       Ni  0.60376626  0.09534068  0.42772978     1.25400
Ni24       Ni  0.56269996  0.03747860  0.37800591     1.25400
C25         C  0.63411766  0.03355182  0.41531748     0.90900
C26         C  0.53238242  0.09871036  0.38885756     0.90800
C27         C  0.52980073  0.01854219  0.45984909     0.90900
C28         C  0.63662427  0.11560726  0.34652240     0.91000
O29         O  0.99591239  0.23162536  0.90887942    -0.71300
O30         O  0.07297920  0.18199956  0.92908577    -0.71300
O31         O  0.99474938  0.16968407  0.96110028    -0.71400
O32         O  0.07399583  0.24295414  0.87575435    -0.71400
O33         O  0.11286501  0.29714473  0.92181101    -0.71400
O34         O  0.03232043  0.22341056  0.00792836    -0.71300
O35         O  0.11056847  0.23618532  0.97552051    -0.71300
O36         O  0.03490581  0.28550904  0.95513825    -0.71400
Ni37       Ni  0.03301139  0.20466842  0.91698627     1.25400
Ni38       Ni  0.07405542  0.26254651  0.96670183     1.25400
C39         C  0.00262641  0.26643460  0.92937212     0.90900
C40         C  0.10441525  0.20134587  0.95587478     0.90800
C41         C  0.00014804  0.18440607  0.99819327     0.90900
C42         C  0.10695270  0.28148304  0.88485706     0.91000
O43         O  0.90000648  0.32758638  0.93604254    -0.71300
O44         O  0.85036597  0.40460184  0.91567572    -0.71300
O45         O  0.83807171  0.32636667  0.88375591    -0.71400
O46         O  0.91132736  0.40568171  0.96907124    -0.71400
O47         O  0.96555083  0.44449037  0.92301536    -0.71400
O48         O  0.89183401  0.36388883  0.83693618    -0.71300
O49         O  0.90458633  0.44214056  0.86924924    -0.71300
O50         O  0.95392320  0.36652200  0.88978547    -0.71400
Ni51       Ni  0.87304401  0.36466448  0.92785583     1.25400
Ni52       Ni  0.93095856  0.40564974  0.87814505     1.25400
C53         C  0.93482927  0.33427352  0.91557085     0.90900
C54         C  0.86972161  0.43600011  0.88886186     0.90800
C55         C  0.85281857  0.33173090  0.84667234     0.90900
C56         C  0.94987432  0.43861353  0.95996094     0.91000
O57         O  0.23342084  0.99435032  0.60264848    -0.71300
O58         O  0.18368486  0.07129814  0.58237015    -0.71300
O59         O  0.17143595  0.99309899  0.55040570    -0.71400
O60         O  0.24468780  0.07240222  0.63572339    -0.71400
O61         O  0.29888435  0.11126137  0.58965917    -0.71400
O62         O  0.22516801  0.03066425  0.50357257    -0.71300
O63         O  0.23787762  0.10888101  0.53593221    -0.71300
O64         O  0.28730896  0.03333401  0.55638196    -0.71400
Ni65       Ni  0.20640940  0.03139062  0.59450687     1.25400
Ni66       Ni  0.26429395  0.07242643  0.54478388     1.25400
C67         C  0.26824802  0.00107606  0.58216182     0.90900
C68         C  0.20301350  0.10270953  0.55556459     0.90800
C69         C  0.18616512  0.99848580  0.51331510     0.90900
C70         C  0.28321963  0.10535610  0.62661185     0.91000
O71         O  0.32937256  0.89847333  0.57541992    -0.71300
O72         O  0.40635756  0.84875874  0.59563425    -0.71300
O73         O  0.32815445  0.83651061  0.62764361    -0.71400
O74         O  0.40743636  0.90974116  0.54230077    -0.71400
O75         O  0.44633246  0.96392177  0.58835753    -0.71400
O76         O  0.36575567  0.89022726  0.67447093    -0.71300
O77         O  0.44397844  0.90293503  0.64206796    -0.71300
O78         O  0.36839059  0.95234761  0.62167886    -0.71400
Ni79       Ni  0.36643190  0.87147476  0.58353003     1.25400
Ni80       Ni  0.40750628  0.92934305  0.63324619     1.25400
C81         C  0.33610570  0.93328676  0.59591526     0.90900
C82         C  0.43779231  0.86808089  0.62242708     0.90800
C83         C  0.33356686  0.85123293  0.66473684     0.90900
C84         C  0.44041387  0.94825643  0.55140530     0.91000
O85         O  0.40332655  0.30570131  0.74211399    -0.71300
O86         O  0.45313983  0.22881904  0.76238449    -0.71300
O87         O  0.39210421  0.22766630  0.70904049    -0.71400
O88         O  0.46534100  0.30699959  0.79434816    -0.71400
O89         O  0.41162488  0.26941097  0.84118894    -0.71400
O90         O  0.33792381  0.18878850  0.75511180    -0.71300
O91         O  0.39896092  0.19121204  0.80882905    -0.71300
O92         O  0.34945579  0.26670007  0.78838924    -0.71400
Ni93       Ni  0.43037505  0.26869419  0.75025160     1.25400
Ni94       Ni  0.37250720  0.22763565  0.79998238     1.25400
C95         C  0.36849648  0.29895703  0.76260543     0.90900
C96         C  0.43383186  0.19740727  0.78919327     0.90800
C97         C  0.35358284  0.19469971  0.71815691     0.90900
C98         C  0.45061735  0.30160360  0.83144154     0.91000
O99         O  0.30736636  0.40155654  0.76932119    -0.71300
O100        O  0.23042911  0.45131777  0.74906634    -0.71300
O101        O  0.22930102  0.39031492  0.80240925    -0.71400
O102        O  0.30863342  0.46353968  0.71708936    -0.71400
O103        O  0.27103636  0.40983399  0.67025214    -0.71400
O104        O  0.19041262  0.33614352  0.75634255    -0.71300
O105        O  0.19281222  0.39714923  0.70262545    -0.71300
O106        O  0.26835627  0.34769411  0.72305082    -0.71400
Ni107      Ni  0.27033053  0.42857832  0.76119182     1.25400
Ni108      Ni  0.22926191  0.37072033  0.71146552     1.25400
C109        C  0.30062921  0.36674114  0.74882773     0.90900
C110        C  0.19900694  0.43200907  0.72226145     0.90800
C111        C  0.19632277  0.35180294  0.79329691     0.90900
C112        C  0.30322924  0.44882339  0.67999443     0.91000
O113        O  0.66275938  0.56516797  0.24206240    -0.71300
O114        O  0.73972149  0.51543931  0.26235758    -0.71300
O115        O  0.66151606  0.50322304  0.29432821    -0.71400
O116        O  0.74081682  0.57639387  0.20897365    -0.71400
O117        O  0.77971538  0.63059976  0.25500833    -0.71400
O118        O  0.69911183  0.55696139  0.34113723    -0.71300
O119        O  0.77733758  0.56964111  0.30877056    -0.71300
O120        O  0.70178053  0.61906488  0.28830095    -0.71400
Ni121      Ni  0.69980539  0.53815869  0.25021118     1.25400
Ni122      Ni  0.74087889  0.59605249  0.29990586     1.25400
C123        C  0.66950022  0.59999801  0.26253505     0.90900
C124        C  0.77114936  0.53477263  0.28915624     0.90800
C125        C  0.66692130  0.51796385  0.33141309     0.90900
C126        C  0.77379370  0.61491407  0.21806323     0.91000
O127        O  0.56684783  0.66108624  0.26926726    -0.71300
O128        O  0.51704612  0.73797388  0.24896943    -0.71300
O129        O  0.50483446  0.65977943  0.21703517    -0.71400
O130        O  0.57808394  0.73913610  0.30232182    -0.71400
O131        O  0.63226175  0.77799944  0.25624375    -0.71400
O132        O  0.55854764  0.69734559  0.17018511    -0.71300
O133        O  0.57121853  0.77556029  0.20251589    -0.71300
O134        O  0.62071778  0.70007183  0.22298663    -0.71400
Ni135      Ni  0.53980690  0.69809891  0.26111929     1.25400
Ni136      Ni  0.59767107  0.73913719  0.21137987     1.25400
C137        C  0.60167092  0.66781616  0.24877061     0.90900
C138        C  0.53634825  0.76937226  0.22214738     0.90800
C139        C  0.51955561  0.66515598  0.17994240     0.90900
C140        C  0.61660709  0.77209693  0.29320019     0.91000
O141        O  0.07006751  0.63903956  0.07536136    -0.71300
O142        O  0.11978707  0.56209922  0.09575139    -0.71300
O143        O  0.05879579  0.56095440  0.04235297    -0.71400
O144        O  0.13202796  0.64031826  0.12765013    -0.71400
O145        O  0.07827867  0.60278367  0.17447671    -0.71400
O146        O  0.00458586  0.52213405  0.08841545    -0.71300
O147        O  0.06557932  0.52454628  0.14218428    -0.71300
O148        O  0.01616330  0.60009339  0.12162512    -0.71400
Ni149      Ni  0.09706720  0.60199732  0.08355806     1.25400
Ni150      Ni  0.03916609  0.56099857  0.13327714     1.25400
C151        C  0.03524081  0.63233950  0.09583343     0.90900
C152        C  0.10045411  0.53070953  0.12257587     0.90800
C153        C  0.02025939  0.52800931  0.05146909     0.90900
C154        C  0.11728446  0.63495344  0.16473457     0.91000
O155        O  0.97417340  0.73500587  0.10248136    -0.71300
O156        O  0.89714485  0.78466912  0.08222753    -0.71300
O157        O  0.89609360  0.72370950  0.13557559    -0.71400
O158        O  0.97537686  0.79695845  0.05024866    -0.71400
O159        O  0.93781163  0.74323635  0.00341544    -0.71400
O160        O  0.85722509  0.66951945  0.08951896    -0.71300
O161        O  0.85955972  0.73048615  0.03579090    -0.71300
O162        O  0.93518319  0.68112543  0.05621924    -0.71400
Ni163      Ni  0.93709444  0.76198323  0.09435207     1.25400
Ni164      Ni  0.89605419  0.70410774  0.04463302     1.25400
C165        C  0.96745351  0.70018963  0.08199625     0.90900
C166        C  0.86571790  0.76533192  0.05542885     0.90800
C167        C  0.86313404  0.68518428  0.12647170     0.90900
C168        C  0.96998625  0.78223721  0.01315693     0.91000
O169        O  0.55612046  0.89852326  0.07529207    -0.71300
O170        O  0.42944644  0.84869979  0.09549051    -0.71300
O171        O  0.48932866  0.90975608  0.04219620    -0.71400
O172        O  0.49539336  0.83650502  0.12749044    -0.71400
O173        O  0.51118812  0.89019102  0.17433696    -0.71400
O174        O  0.50432375  0.96388932  0.08829997    -0.71300
O175        O  0.44569526  0.90284073  0.14194651    -0.71300
O176        O  0.57067330  0.95234687  0.12158894    -0.71400
Ni177      Ni  0.49208671  0.87147485  0.08339181     1.25400
Ni178      Ni  0.50855411  0.92929886  0.13314183     1.25400
C179        C  0.58404961  0.93332397  0.09581603     0.90900
C180        C  0.41717960  0.86797913  0.12229915     0.90800
C181        C  0.49470436  0.94824629  0.05134781     0.90900
C182        C  0.50453247  0.85121509  0.16459156     0.91000
O183        O  0.74766626  0.99419468  0.10261697    -0.71300
O184        O  0.87428252  0.07093977  0.08233051    -0.71300
O185        O  0.81434141  0.07216372  0.13572470    -0.71400
O186        O  0.80844209  0.99281061  0.05032515    -0.71400
O187        O  0.79240674  0.03051793  0.00355630    -0.71400
O188        O  0.79915412  0.11116027  0.08970358    -0.71300
O189        O  0.85780919  0.10864821  0.03593743    -0.71300
O190        O  0.73291009  0.03332423  0.05641138    -0.71400
Ni191      Ni  0.81167950  0.03112263  0.09446800     1.25400
Ni192      Ni  0.79498263  0.07230527  0.04480310     1.25400
C193        C  0.71964592  0.00102448  0.08215727     0.90900
C194        C  0.88642688  0.10240312  0.05556266     0.90800
C195        C  0.80883915  0.10520982  0.12663847     0.90900
C196        C  0.79916297  0.99825014  0.01325450     0.91000
O197        O  0.88909041  0.30582858  0.24207994    -0.71300
O198        O  0.76247978  0.22908216  0.26238432    -0.71300
O199        O  0.82832065  0.30723615  0.29435977    -0.71400
O200        O  0.82241891  0.22783935  0.20900326    -0.71400
O201        O  0.83761445  0.18887016  0.25504828    -0.71400
O202        O  0.84437084  0.26956087  0.34115112    -0.71300
O203        O  0.77896446  0.19140540  0.30880308    -0.71300
O204        O  0.90385643  0.26672530  0.28830773    -0.71400
Ni205      Ni  0.82507968  0.26890017  0.25023786     1.25400
Ni206      Ni  0.84178844  0.22774825  0.29992753     1.25400
C207        C  0.91711370  0.29901127  0.26254739     0.90900
C208        C  0.75034214  0.19763167  0.28916407     0.90800
C209        C  0.83761659  0.30182541  0.33143285     0.90900
C210        C  0.82792621  0.19480068  0.21810796     0.91000
O211        O  0.08062018  0.40151679  0.26945347    -0.71300
O212        O  0.20730482  0.45139193  0.24930513    -0.71300
O213        O  0.14134908  0.46355572  0.21727634    -0.71400
O214        O  0.14742174  0.39031121  0.30257254    -0.71400
O215        O  0.13247227  0.33619566  0.25646151    -0.71400
O216        O  0.12559491  0.40988368  0.17042566    -0.71300
O217        O  0.19110042  0.39726874  0.20284128    -0.71300
O218        O  0.06610721  0.34770611  0.22315371    -0.71400
Ni219      Ni  0.14465623  0.42858896  0.26137784     1.25400
Ni220      Ni  0.12823545  0.37078125  0.21162141     1.25400
C221        C  0.05270972  0.36671704  0.24891800     0.90900
C222        C  0.21959687  0.43212750  0.22250475     0.90800
C223        C  0.13222914  0.44885068  0.18017300     0.90900
C224        C  0.14208235  0.35183631  0.29341486     0.91000
O225        O  0.22297323  0.23191593  0.40870037    -0.71300
O226        O  0.09629692  0.18208312  0.42883878    -0.71300
O227        O  0.15618838  0.24313100  0.37555747    -0.71400
O228        O  0.16222993  0.16991275  0.46089647    -0.71400
O229        O  0.17799366  0.22360813  0.50772564    -0.71400
O230        O  0.17115402  0.29727203  0.42164486    -0.71300
O231        O  0.11251129  0.23623265  0.47527882    -0.71300
O232        O  0.23750338  0.28575143  0.45497860    -0.71400
Ni233      Ni  0.15894009  0.20486542  0.41677425     1.25400
Ni234      Ni  0.17537544  0.26269950  0.46650481     1.25400
C235        C  0.25089133  0.26672260  0.42922298     0.90900
C236        C  0.08401191  0.20136548  0.45562542     0.90800
C237        C  0.16153847  0.28161420  0.38469727     0.90900
C238        C  0.17133766  0.18462791  0.49799739     0.91000
O239        O  0.41452922  0.32762437  0.43593478    -0.71300
O240        O  0.54111583  0.40446636  0.41557414    -0.71300
O241        O  0.48116980  0.40561918  0.46900814    -0.71400
O242        O  0.47530156  0.32629468  0.38360391    -0.71400
O243        O  0.45917605  0.36394618  0.33684967    -0.71400
O244        O  0.46590163  0.44457302  0.42300715    -0.71300
O245        O  0.52455750  0.44212270  0.36919537    -0.71300
O246        O  0.39969100  0.36670964  0.38974680    -0.71400
Ni247      Ni  0.47853052  0.36459887  0.42774656     1.25400
Ni248      Ni  0.46174354  0.40572995  0.37809990     1.25400
C249        C  0.38647343  0.33442435  0.41550256     0.90900
C250        C  0.55321273  0.43592266  0.38880562     0.90800
C251        C  0.47560797  0.43863043  0.45993720     0.90900
C252        C  0.46596800  0.33169914  0.34654411     0.91000
O253        O  0.55565983  0.63908844  0.57549434    -0.71300
O254        O  0.42905705  0.56229490  0.59582075    -0.71300
O255        O  0.49488416  0.64044923  0.62779788    -0.71400
O256        O  0.48900283  0.56110785  0.54240645    -0.71400
O257        O  0.50422892  0.52213282  0.58842027    -0.71400
O258        O  0.51096988  0.60277934  0.67456628    -0.71300
O259        O  0.44557654  0.52461998  0.64221213    -0.71300
O260        O  0.57045642  0.59998230  0.62169361    -0.71400
Ni261      Ni  0.49165113  0.60213721  0.58366225     1.25400
Ni262      Ni  0.50839502  0.56098574  0.63332253     1.25400
C263        C  0.58369807  0.63227537  0.59594250     0.90900
C264        C  0.41693903  0.53084075  0.62259529     0.90800
C265        C  0.50419512  0.63503528  0.66486323     0.90900
C266        C  0.49453900  0.52808232  0.55148593     0.91000
O267        O  0.74719445  0.73483776  0.60282246    -0.71300
O268        O  0.87388808  0.78477361  0.58266968    -0.71300
O269        O  0.80790680  0.79688645  0.55063635    -0.71400
O270        O  0.81402403  0.72368526  0.63595269    -0.71400
O271        O  0.79909919  0.66956433  0.58985521    -0.71400
O272        O  0.79218095  0.74321294  0.50379446    -0.71300
O273        O  0.85770772  0.73064378  0.53621905    -0.71300
O274        O  0.73270774  0.68102492  0.55653274    -0.71400
Ni275      Ni  0.81123460  0.76194011  0.59474574     1.25400
Ni276      Ni  0.79484125  0.70412869  0.54500221     1.25400
C277        C  0.71929463  0.70002650  0.58229271     0.90900
C278        C  0.88619254  0.76551913  0.55586919     0.90800
C279        C  0.79880422  0.78217923  0.51353257     0.90900
C280        C  0.80869902  0.68521266  0.62680824     0.91000
O281        O  0.88961442  0.56531915  0.74203045    -0.71300
O282        O  0.76293007  0.51540334  0.76221156    -0.71300
O283        O  0.82279228  0.57650560  0.70894048    -0.71400
O284        O  0.82890719  0.50325650  0.79420732    -0.71400
O285        O  0.84465654  0.55691293  0.84107539    -0.71400
O286        O  0.83773637  0.63060953  0.75506370    -0.71300
O287        O  0.77912835  0.56951224  0.80868984    -0.71300
O288        O  0.90412347  0.61911613  0.78834533    -0.71400
Ni289      Ni  0.82557877  0.53822720  0.75012219     1.25400
Ni290      Ni  0.84199426  0.59601949  0.79989344     1.25400
C291        C  0.91752374  0.60012068  0.76256499     0.90900
C292        C  0.75063469  0.53465250  0.78902579     0.90800
C293        C  0.82812889  0.61497810  0.71810566     0.90900
C294        C  0.83802699  0.51794993  0.83131444     0.91000
O295        O  0.08115194  0.66103771  0.76929767    -0.71300
O296        O  0.20774867  0.73778783  0.74892882    -0.71300
O297        O  0.14783896  0.73902411  0.80235192    -0.71400
O298        O  0.14189314  0.65963622  0.71697593    -0.71400
O299        O  0.12581111  0.69730731  0.67020650    -0.71400
O300        O  0.13261031  0.77799136  0.75633250    -0.71300
O301        O  0.19123120  0.77546370  0.70253408    -0.71300
O302        O  0.06635284  0.70013740  0.72309248    -0.71400
Ni303      Ni  0.14515707  0.69796855  0.76110649     1.25400
Ni304      Ni  0.12841351  0.73911699  0.71144212     1.25400
C305        C  0.05311360  0.66785395  0.74885399     0.90900
C306        C  0.21986718  0.76923644  0.72214876     0.90800
C307        C  0.14231728  0.77205627  0.79326357     0.90900
C308        C  0.13257752  0.66504683  0.67991093     0.91000
O309        O  0.41400261  0.06827759  0.93605492    -0.71300
O310        O  0.54066572  0.11806313  0.91586482    -0.71300
O311        O  0.47473667  0.13026348  0.88383952    -0.71400
O312        O  0.48077841  0.05703617  0.96916988    -0.71400
O313        O  0.46577083  0.00288144  0.92308559    -0.71400
O314        O  0.45892994  0.07655598  0.83701278    -0.71300
O315        O  0.52440770  0.06390196  0.86942853    -0.71300
O316        O  0.39943413  0.01443138  0.88977897    -0.71400
Ni317      Ni  0.47803108  0.09530662  0.92795653     1.25400
Ni318      Ni  0.46155106  0.03745961  0.87822825     1.25400
C319        C  0.38606792  0.03347033  0.91554329     0.90900
C320        C  0.55292623  0.09876748  0.88906946     0.90800
C321        C  0.46559998  0.11554105  0.84674251     0.90900
C322        C  0.47539455  0.01853908  0.96003366     0.91000
O323        O  0.22245177  0.97258924  0.90880442    -0.71300
O324        O  0.09584937  0.89577366  0.92908312    -0.71300
O325        O  0.16165408  0.97391744  0.96110284    -0.71400
O326        O  0.15581795  0.89461317  0.87568882    -0.71400
O327        O  0.17103818  0.85563161  0.92169913    -0.71400
O328        O  0.17772399  0.93622832  0.00786251    -0.71300
O329        O  0.11235394  0.85808133  0.97546849    -0.71300
O330        O  0.23724317  0.93347592  0.95500091    -0.71400
Ni331      Ni  0.15844515  0.93562782  0.91695280     1.25400
Ni332      Ni  0.17517800  0.89446241  0.96660737     1.25400
C333        C  0.25048656  0.96577411  0.92925413     0.90900
C334        C  0.08372236  0.86430330  0.95583962     0.90800
C335        C  0.17094621  0.96848336  0.99816969     0.90900
C336        C  0.16135140  0.86158575  0.88476642     0.91000
O337        O  0.64078567  0.55407328  0.93582175    -0.71300
O338        O  0.56405357  0.42748978  0.91555334    -0.71300
O339        O  0.64218220  0.49332111  0.88353535    -0.71400
O340        O  0.56282593  0.48740844  0.96894792    -0.71400
O341        O  0.52377925  0.50255772  0.92294186    -0.71400
O342        O  0.60444239  0.50933017  0.83677125    -0.71300
O343        O  0.52630552  0.44392985  0.86916630    -0.71300
O344        O  0.60161274  0.56879821  0.88962862    -0.71400
Ni345      Ni  0.60386679  0.49007760  0.92768188     1.25400
Ni346      Ni  0.56263946  0.50673940  0.87802695     1.25400
C347        C  0.63393005  0.58207246  0.91536823     0.90900
C348        C  0.53257400  0.41533413  0.88879067     0.90800
C349        C  0.63673199  0.50259188  0.84646655     0.90900
C350        C  0.52975969  0.49289503  0.95987564     0.91000
O351        O  0.73646630  0.74554653  0.90857256    -0.71300
O352        O  0.78637251  0.87217067  0.92886903    -0.71300
O353        O  0.79849031  0.80618428  0.96082405    -0.71400
O354        O  0.72530602  0.81237824  0.87551848    -0.71400
O355        O  0.67113586  0.79738355  0.92159774    -0.71400
O356        O  0.74476961  0.79038986  0.00765094    -0.71300
O357        O  0.73219365  0.85592322  0.97530120    -0.71300
O358        O  0.68260505  0.73099117  0.95484725    -0.71400
Ni359      Ni  0.76355471  0.80955449  0.91672100     1.25400
Ni360      Ni  0.70569159  0.79308781  0.96644676     1.25400
C361        C  0.70163543  0.71762338  0.92907171     0.90900
C362        C  0.76709338  0.88443012  0.95568726     0.90800
C363        C  0.78375670  0.79703444  0.99791767     0.90900
C364        C  0.68680825  0.80701874  0.88465504     0.91000
O365        O  0.66266472  0.07933515  0.74212730    -0.71300
O366        O  0.73940491  0.20589468  0.76250200    -0.71300
O367        O  0.74062336  0.14603169  0.70903027    -0.71400
O368        O  0.66128775  0.14003797  0.79449863    -0.71400
O369        O  0.69903922  0.12398380  0.84121251    -0.71400
O370        O  0.77966804  0.13082433  0.75498912    -0.71300
O371        O  0.77716383  0.18940517  0.80883524    -0.71300
O372        O  0.70183849  0.06455662  0.78827541    -0.71400
Ni373      Ni  0.69958903  0.14332138  0.75032360     1.25400
Ni374      Ni  0.74082214  0.12660395  0.79992510     1.25400
C375        C  0.66952027  0.05131259  0.76253927     0.90900
C376        C  0.77088771  0.21802113  0.78925621     0.90800
C377        C  0.77368791  0.14053194  0.71807385     0.90900
C378        C  0.66675619  0.13074470  0.83155344     0.91000
O379        O  0.56694784  0.88785875  0.76928384    -0.71300
O380        O  0.51702395  0.76121691  0.74908844    -0.71300
O381        O  0.57808492  0.82104538  0.80241484    -0.71400
O382        O  0.50493119  0.82718815  0.71704938    -0.71400
O383        O  0.55866047  0.84293457  0.67024360    -0.71400
O384        O  0.63226174  0.83599226  0.75635482    -0.71300
O385        O  0.57120699  0.77741134  0.70267515    -0.71300
O386        O  0.62081633  0.90237004  0.72303161    -0.71400
Ni387      Ni  0.53985048  0.82384447  0.76118191     1.25400
Ni388      Ni  0.59772058  0.84025895  0.71147909     1.25400
C389        C  0.60178758  0.91576257  0.74878516     0.90900
C390        C  0.53630549  0.74892606  0.72230260     0.90800
C391        C  0.61658159  0.82638795  0.79329709     0.90900
C392        C  0.51967654  0.83631068  0.67995802     0.91000
O393        O  0.97423520  0.22080806  0.60246807    -0.71300
O394        O  0.89744874  0.09424624  0.58213219    -0.71300
O395        O  0.97559108  0.16006880  0.55013113    -0.71400
O396        O  0.89625865  0.15414889  0.63556807    -0.71400
O397        O  0.85723785  0.16936017  0.58958442    -0.71400
O398        O  0.93786825  0.17613056  0.50339179    -0.71300
O399        O  0.85971808  0.11074011  0.53577239    -0.71300
O400        O  0.93508654  0.23559111  0.55629610    -0.71400
Ni401      Ni  0.93728907  0.15682066  0.59429040     1.25400
Ni402      Ni  0.89608431  0.17354408  0.54466223     1.25400
C403        C  0.96739552  0.24883328  0.58204181     0.90900
C404        C  0.86596698  0.08212035  0.55537673     0.90800
C405        C  0.97014083  0.16936089  0.51307042     0.90900
C406        C  0.86320674  0.15966243  0.62650755     0.91000
O407        O  0.06991490  0.41230447  0.57534538    -0.71300
O408        O  0.11977184  0.53892148  0.59561701    -0.71300
O409        O  0.13190655  0.47295967  0.62760856    -0.71400
O410        O  0.05872885  0.47911028  0.54226636    -0.71400
O411        O  0.00454160  0.46409986  0.58833219    -0.71400
O412        O  0.07816490  0.45715758  0.67441550    -0.71300
O413        O  0.06557649  0.52266965  0.64203095    -0.71300
O414        O  0.01603657  0.39773275  0.62160380    -0.71400
Ni415      Ni  0.09697778  0.47630909  0.58348551     1.25400
Ni416      Ni  0.03909522  0.45983046  0.63319295     1.25400
C417        C  0.03508262  0.38437371  0.59583624     0.90900
C418        C  0.10047597  0.55117960  0.62241769     0.90800
C419        C  0.11715721  0.46380981  0.66469775     0.90900
C420        C  0.02022152  0.47373600  0.55139268     0.91000
O421        O  0.90025902  0.55452542  0.43614025    -0.71300
O422        O  0.85041912  0.42791865  0.41580089    -0.71300
O423        O  0.91144464  0.48770484  0.46918620    -0.71400
O424        O  0.83828444  0.49389172  0.38384632    -0.71400
O425        O  0.89203941  0.50972233  0.33704711    -0.71400
O426        O  0.96564822  0.50275135  0.42312845    -0.71300
O427        O  0.90463244  0.44420469  0.36939822    -0.71300
O428        O  0.95415021  0.56912853  0.38988716    -0.71400
Ni429      Ni  0.87320459  0.49052386  0.42796783     1.25400
Ni430      Ni  0.93110335  0.50703800  0.37826945     1.25400
C431        C  0.93509468  0.58247133  0.41566106     0.90900
C432        C  0.86972197  0.41567986  0.38898905     0.90800
C433        C  0.94995817  0.49309263  0.46006374     0.90900
C434        C  0.85303854  0.50305155  0.34675906     0.91000
O435        O  0.99589719  0.74602192  0.40899511    -0.71300
O436        O  0.07267894  0.87260572  0.42923532    -0.71300
O437        O  0.07384693  0.81266032  0.37583232    -0.71400
O438        O  0.99456187  0.80680241  0.46129675    -0.71400
O439        O  0.03232249  0.79079085  0.50803523    -0.71400
O440        O  0.11290245  0.79749441  0.42181516    -0.71300
O441        O  0.11044558  0.85615720  0.47559326    -0.71300
O442        O  0.03508028  0.73128665  0.45516762    -0.71400
Ni443      Ni  0.03283969  0.81001848  0.41712402     1.25400
Ni444      Ni  0.07408270  0.79334610  0.46675167     1.25400
C445        C  0.00275549  0.71801708  0.42943596     0.90900
C446        C  0.10417625  0.88475755  0.45597862     0.90800
C447        C  0.10690632  0.80715434  0.38488550     0.90900
C448        C  0.00003876  0.79754639  0.49836266     0.91000
O449        O  0.40306723  0.07885172  0.24208292    -0.71300
O450        O  0.45304427  0.20549728  0.26228473    -0.71300
O451        O  0.46512911  0.13951326  0.29429284    -0.71400
O452        O  0.39193645  0.14567900  0.20898418    -0.71400
O453        O  0.33779212  0.13074933  0.25507615    -0.71400
O454        O  0.41143712  0.12378991  0.34113301    -0.71300
O455        O  0.39889406  0.18932386  0.30872958    -0.71300
O456        O  0.34923414  0.06435709  0.28837101    -0.71400
Ni457      Ni  0.43018890  0.14286682  0.25018720     1.25400
Ni458      Ni  0.37235554  0.12647297  0.29992634     1.25400
C459        C  0.36823779  0.05095622  0.26259731     0.90900
C460        C  0.43379021  0.21779967  0.28908952     0.90800
C461        C  0.45041128  0.13040583  0.33139316     0.90900
C462        C  0.35345049  0.14034877  0.21812673     0.91000
O463        O  0.30738639  0.88739261  0.26923711    -0.71300
O464        O  0.23068191  0.76082594  0.24887787    -0.71300
O465        O  0.30879673  0.82669315  0.21688001    -0.71400
O466        O  0.22943566  0.82068845  0.30233380    -0.71400
O467        O  0.19038404  0.83587222  0.25636229    -0.71400
O468        O  0.27103909  0.84272215  0.17015248    -0.71300
O469        O  0.19291562  0.77729003  0.20253116    -0.71300
O470        O  0.26820690  0.90214673  0.22307488    -0.71400
Ni471      Ni  0.27048095  0.82340353  0.26104742     1.25400
Ni472      Ni  0.22924178  0.84009520  0.21143190     1.25400
C473        C  0.30051934  0.91540421  0.24881905     0.90900
C474        C  0.19919912  0.74868515  0.22212142     0.90800
C475        C  0.30333081  0.83597811  0.17982067     0.90900
C476        C  0.19636788  0.82618178  0.29328423     0.91000
O477        O  0.23360707  0.22120079  0.10276617    -0.71300
O478        O  0.18371627  0.09457690  0.08249853    -0.71300
O479        O  0.24474223  0.15437525  0.13586806    -0.71400
O480        O  0.17162355  0.16055457  0.05049056    -0.71400
O481        O  0.22537769  0.17633969  0.00370210    -0.71400
O482        O  0.29894666  0.16936525  0.08982809    -0.71300
O483        O  0.23792855  0.11081368  0.03610644    -0.71300
O484        O  0.28750110  0.23575203  0.05653067    -0.71400
Ni485      Ni  0.20652523  0.15719274  0.09462850     1.25400
Ni486      Ni  0.26442446  0.17365226  0.04494544     1.25400
C487        C  0.26845396  0.24912190  0.08228623     0.90900
C488        C  0.20301443  0.08231139  0.05570709     0.90800
C489        C  0.28324707  0.15973325  0.12676176     0.90900
C490        C  0.18638245  0.16969243  0.01340411     0.91000
O491        O  0.32929773  0.41267794  0.07562174    -0.71300
O492        O  0.40606575  0.53925006  0.09590498    -0.71300
O493        O  0.40723237  0.47934130  0.04245968    -0.71400
O494        O  0.32796485  0.47342161  0.12796566    -0.71400
O495        O  0.36573980  0.45739176  0.17467160    -0.71400
O496        O  0.44631132  0.46416767  0.08840799    -0.71300
O497        O  0.44385172  0.52279127  0.14223355    -0.71300
O498        O  0.36850312  0.39792825  0.12175711    -0.71400
Ni499      Ni  0.36623307  0.47666865  0.08377372     1.25400
Ni500      Ni  0.40749787  0.45998280  0.13336562     1.25400
C501        C  0.33616651  0.38466736  0.09603968     0.90900
C502        C  0.43757194  0.55139562  0.12263743     0.90800
C503        C  0.44030160  0.47384403  0.05148905     0.90900
C504        C  0.33344877  0.46414379  0.16502079     0.91000
C505        C  0.30741240  0.33711404  0.09055352    -0.10100
C506        C  0.28723162  0.29669493  0.08774218    -0.11700
C507        C  0.30851248  0.15342315  0.15874120    -0.10100
C508        C  0.32816176  0.14665446  0.18616784    -0.11700
C509        C  0.32925362  0.96295818  0.25433355    -0.10100
C510        C  0.34943180  0.00337622  0.25715493    -0.11700
C511        C  0.13844818  0.81332031  0.35283931    -0.10100
C512        C  0.16480980  0.81997957  0.32532597    -0.11700
C513        C  0.97400985  0.67046017  0.42395329    -0.10100
C514        C  0.95384696  0.63003979  0.42113601    -0.11700
C515        C  0.99492626  0.48003205  0.51943227    -0.10100
C516        C  0.97525022  0.48678984  0.49202321    -0.11700
C517        C  0.01631990  0.33680252  0.59037617    -0.10100
C518        C  0.99614909  0.29638423  0.58755261    -0.11700
C519        C  0.83163754  0.15345554  0.65853603    -0.10100
C520        C  0.80525530  0.14675948  0.68603631    -0.11700
C521        C  0.62057991  0.96334162  0.75422071    -0.10100
C522        C  0.64076555  0.00375989  0.75703174    -0.11700
C523        C  0.64186065  0.82008982  0.82527428    -0.10100
C524        C  0.66151730  0.81332699  0.85269744    -0.11700
C525        C  0.68286033  0.67004987  0.92362315    -0.10100
C526        C  0.66268075  0.62962893  0.92083394    -0.11700
C527        C  0.49819625  0.48670622  0.99190886    -0.10100
C528        C  0.47183870  0.48003686  0.01942781    -0.11700
C529        C  0.18530293  0.03591349  0.04566329    -0.10100
C530        C  0.17616126  0.00136176  0.02831825    -0.11700
C531        C  0.59933799  0.11642545  0.87906580    -0.10100
C532        C  0.63389288  0.12553058  0.86172694    -0.11700
C533        C  0.33848254  0.01472200  0.92097702    -0.10100
C534        C  0.29805047  0.99454356  0.92377271    -0.11700
C535        C  0.12732749  0.63214176  0.64978029    -0.10100
C536        C  0.11817509  0.59757664  0.63245199    -0.11700
C537        C  0.14851492  0.80363746  0.82526918    -0.10100
C538        C  0.15518009  0.83002526  0.85274933    -0.11700
C539        C  0.70421028  0.51695326  0.79901383    -0.10100
C540        C  0.66963080  0.50781876  0.81632452    -0.11700
C541        C  0.00555002  0.63909387  0.75435080    -0.10100
C542        C  0.96511682  0.61890660  0.75714259    -0.11700
C543        C  0.96717749  0.79235391  0.52853229    -0.10100
C544        C  0.93261566  0.78323163  0.54587120    -0.11700
C545        C  0.81502142  0.65993272  0.65876153    -0.10100
C546        C  0.82181043  0.64027576  0.68616752    -0.11700
C547        C  0.67169803  0.68123845  0.58769440    -0.10100
C548        C  0.63126303  0.66104720  0.59046527    -0.11700
C549        C  0.50943706  0.66794114  0.69499307    -0.10100
C550        C  0.51859113  0.70251622  0.71230143    -0.11700
C551        C  0.48838432  0.49653264  0.51946385    -0.10100
C552        C  0.48175433  0.47017365  0.49196259    -0.11700
C553        C  0.46071132  0.29879046  0.31641236    -0.10100
C554        C  0.45153245  0.26421108  0.29909782    -0.11700
C555        C  0.03759079  0.18369129  0.46560185    -0.10100
C556        C  0.00302001  0.17457382  0.48291575    -0.11700
C557        C  0.33891386  0.30565257  0.42101192    -0.10100
C558        C  0.29848140  0.28547841  0.42380948    -0.11700
C559        C  0.26601988  0.44981010  0.21252475    -0.10100
C560        C  0.30058678  0.45892829  0.19519873    -0.11700
C561        C  0.14841075  0.32654785  0.32535240    -0.10100
C562        C  0.15521397  0.30689308  0.35274766    -0.11700
C563        C  0.96468235  0.32777247  0.25708083    -0.10100
C564        C  0.00511532  0.34795083  0.25431705    -0.11700
C565        C  0.84286092  0.33473449  0.36156116    -0.10100
C566        C  0.85201643  0.36928920  0.37891174    -0.11700
C567        C  0.81504277  0.13679409  0.15864615    -0.10100
C568        C  0.82172517  0.16320429  0.18611353    -0.11700
C569        C  0.78480795  0.93082515  0.96574672    -0.10100
C570        C  0.79394584  0.96537039  0.98310545    -0.11700
C571        C  0.33620744  0.84119997  0.14965235    -0.10100
C572        C  0.37076419  0.85031023  0.13231139    -0.11700
C573        C  0.48167288  0.99323617  0.99199133    -0.10100
C574        C  0.48842336  0.97355735  0.01940038    -0.11700
C575        C  0.63164049  0.95208188  0.09039379    -0.10100
C576        C  0.67207565  0.97226261  0.08762006    -0.11700
C577        C  0.83688762  0.78290704  0.04542388    -0.10100
C578        C  0.81139793  0.79190775  0.02807342    -0.11700
C579        C  0.00280896  0.80991870  0.98303648    -0.10100
C580        C  0.03733131  0.83546199  0.96577859    -0.11700
C581        C  0.11807175  0.50193446  0.13264134    -0.10100
C582        C  0.12710541  0.47648767  0.15001954    -0.11700
C583        C  0.01650795  0.66119123  0.09032275    -0.10100
C584        C  0.99629441  0.68143750  0.08748856    -0.11700
C585        C  0.14493631  0.66779505  0.19484748    -0.10100
C586        C  0.17042339  0.70231059  0.21213312    -0.11700
C587        C  0.51870261  0.79812990  0.21210966    -0.10100
C588        C  0.50965793  0.82357537  0.19474162    -0.11700
C589        C  0.49189298  0.63230572  0.14984096    -0.10100
C590        C  0.46637907  0.59777512  0.13258656    -0.11700
C591        C  0.79994228  0.51716649  0.29919349    -0.10100
C592        C  0.82540928  0.50816150  0.31658124    -0.11700
C593        C  0.83161888  0.65985764  0.15850018    -0.10100
C594        C  0.80531064  0.64021523  0.18602613    -0.11700
C595        C  0.64066086  0.61875322  0.25705297    -0.10100
C596        C  0.62043321  0.63898580  0.25424467    -0.11700
C597        C  0.59959454  0.46476929  0.37883070    -0.10100
C598        C  0.63410382  0.49030445  0.36154811    -0.11700
C599        C  0.17022802  0.44963820  0.71224065    -0.10100
C600        C  0.14477887  0.45867620  0.69487001    -0.11700
C601        C  0.37055391  0.50202082  0.63257343    -0.10100
C602        C  0.33604646  0.47649499  0.64986515    -0.11700
C603        C  0.45146905  0.16863874  0.79921180    -0.10100
C604        C  0.46049577  0.14318022  0.81657816    -0.11700
C605        C  0.34971182  0.32776781  0.75712086    -0.10100
C606        C  0.32946774  0.34798340  0.75430232    -0.11700
C607        C  0.47827816  0.33443492  0.86155976    -0.10100
C608        C  0.50378259  0.36895232  0.87883431    -0.11700
C609        C  0.46659365  0.85047244  0.63242500    -0.10100
C610        C  0.49205871  0.84144360  0.64978209    -0.11700
C611        C  0.30075856  0.82356402  0.69487152    -0.10100
C612        C  0.26625109  0.79804447  0.71216499    -0.11700
C613        C  0.18541034  0.13150509  0.54554510    -0.10100
C614        C  0.17641508  0.15698207  0.52817153    -0.11700
C615        C  0.30725193  0.95202847  0.59045585    -0.10100
C616        C  0.28700885  0.97224606  0.58764659    -0.11700
C617        C  0.13298374  0.93113918  0.46592625    -0.10100
C618        C  0.15849867  0.96565775  0.48319654    -0.11700
C619        C  0.32824279  0.16318078  0.68613882    -0.10100
C620        C  0.30856390  0.13686961  0.65863234    -0.11700
C621        C  0.84314267  0.49029607  0.86145670    -0.10100
C622        C  0.85214585  0.46481659  0.87881623    -0.11700
C623        C  0.79967015  0.26439169  0.79925737    -0.10100
C624        C  0.82516054  0.29889981  0.81655248    -0.11700
C625        C  0.97522486  0.47013927  0.99197257    -0.10100
C626        C  0.99491591  0.49647197  0.01946306    -0.11700
C627        C  0.13326006  0.18378507  0.96586243    -0.10100
C628        C  0.15875625  0.17480053  0.98321988    -0.11700
C629        C  0.13846681  0.30681810  0.85282880    -0.10100
C630        C  0.16478926  0.32648027  0.82531678    -0.11700
C631        C  0.95354593  0.30540716  0.92107802    -0.10100
C632        C  0.97376598  0.28516816  0.92389984    -0.11700
C633        C  0.96733607  0.15672808  0.02832351    -0.10100
C634        C  0.93281931  0.13120623  0.04560380    -0.11700
C635        C  0.47805678  0.12529233  0.36155148    -0.10100
C636        C  0.50355135  0.11629179  0.37888648    -0.11700
C637        C  0.66943497  0.14328737  0.31639304    -0.10100
C638        C  0.70395038  0.16881731  0.29911807    -0.11700
C639        C  0.49827298  0.99321988  0.49187156    -0.10100
C640        C  0.47194337  0.97357083  0.51938165    -0.11700
C641        C  0.78471132  0.83529294  0.46597587    -0.10100
C642        C  0.79370535  0.80982129  0.48336558    -0.11700
C643        C  0.66297879  0.01481733  0.42076899    -0.10100
C644        C  0.68321853  0.99459714  0.42358737    -0.11700
C645        C  0.81163803  0.00121993  0.52814658    -0.10100
C646        C  0.83715021  0.03574427  0.54540974    -0.11700
C647        C  0.66163399  0.82991979  0.35273232    -0.10100
C648        C  0.64195477  0.80361493  0.32521839    -0.11700
loop_ 
_geom_bond_atom_site_label_1 
_geom_bond_atom_site_label_2 
_geom_bond_distance 
_geom_bond_site_symmetry_2 
_ccdc_geom_bond_type 
O1           Ni9   1.934       .  S
O1           C11   1.284       .  A
O2           Ni9   1.930       .  S
O2           C12   1.282       .  A
O3           Ni9   1.909       .  S
O3           C13   1.277       .  A
O4           Ni9   1.905       .  S
O4           C14   1.277       .  A
O5          Ni10   1.928       .  S
O5           C14   1.282       .  A
O6          Ni10   1.928       .  S
O6           C13   1.283       .  A
O7          Ni10   1.902       .  S
O7           C12   1.277       .  A
O8          Ni10   1.908       .  S
O8           C11   1.277       .  A
Ni9         Ni10   2.394       .  S
C11         C644   1.439       .  S
C12         C641   1.433       .  S
C13         C647   1.436       .  S
C14         C645   1.434   1_565  S
O15         Ni23   1.934       .  S
O15          C25   1.284       .  A
O16         Ni23   1.929       .  S
O16          C26   1.282       .  A
O17         Ni23   1.909       .  S
O17          C27   1.277       .  A
O18         Ni23   1.905       .  S
O18          C28   1.277       .  A
O19         Ni24   1.928       .  S
O19          C28   1.282       .  A
O20         Ni24   1.928       .  S
O20          C27   1.283       .  A
O21         Ni24   1.902       .  S
O21          C26   1.277       .  A
O22         Ni24   1.908       .  S
O22          C25   1.277       .  A
Ni23        Ni24   2.394       .  S
C25         C643   1.439       .  S
C26         C636   1.433       .  S
C27         C639   1.436   1_545  S
C28         C637   1.434       .  S
O29         Ni37   1.934   1_655  S
O29          C39   1.284   1_655  A
O30         Ni37   1.929       .  S
O30          C40   1.282       .  A
O31         Ni37   1.905   1_655  S
O31          C41   1.277   1_655  A
O32         Ni37   1.909       .  S
O32          C42   1.277       .  A
O33         Ni38   1.928       .  S
O33          C42   1.283       .  A
O34         Ni38   1.928   1_554  S
O34          C41   1.282   1_554  A
O35         Ni38   1.902       .  S
O35          C40   1.277       .  A
O36         Ni38   1.908       .  S
O36          C39   1.277       .  A
Ni37        Ni38   2.394       .  S
C39         C632   1.439   1_455  S
C40         C627   1.433       .  S
C41         C633   1.434   1_456  S
C42         C629   1.436       .  S
O43         Ni51   1.934       .  S
O43          C53   1.284       .  A
O44         Ni51   1.929       .  S
O44          C54   1.282       .  A
O45         Ni51   1.905       .  S
O45          C55   1.277       .  A
O46         Ni51   1.909       .  S
O46          C56   1.277       .  A
O47         Ni52   1.927       .  S
O47          C56   1.283       .  A
O48         Ni52   1.928       .  S
O48          C55   1.282       .  A
O49         Ni52   1.903       .  S
O49          C54   1.277       .  A
O50         Ni52   1.908       .  S
O50          C53   1.277       .  A
Ni51        Ni52   2.394       .  S
C53         C631   1.439       .  S
C54         C622   1.433       .  S
C55         C624   1.434       .  S
C56         C625   1.436       .  S
O57         Ni65   1.934   1_565  S
O57          C67   1.284   1_565  A
O58         Ni65   1.929       .  S
O58          C68   1.282       .  A
O59         Ni65   1.905   1_565  S
O59          C69   1.277       .  A
O60         Ni65   1.909       .  S
O60          C70   1.277       .  A
O61         Ni66   1.927       .  S
O61          C70   1.283       .  A
O62         Ni66   1.928       .  S
O62          C69   1.282   1_545  A
O63         Ni66   1.902       .  S
O63          C68   1.277       .  A
O64         Ni66   1.908       .  S
O64          C67   1.277       .  A
Ni65        Ni66   2.394       .  S
C67         C616   1.439   1_545  S
C68         C613   1.433       .  S
C69         C618   1.434       .  S
C70         C620   1.436       .  S
O71         Ni79   1.934       .  S
O71          C81   1.284       .  A
O72         Ni79   1.929       .  S
O72          C82   1.282       .  A
O73         Ni79   1.905       .  S
O73          C83   1.277       .  A
O74         Ni79   1.909       .  S
O74          C84   1.277       .  A
O75         Ni80   1.928       .  S
O75          C84   1.283       .  A
O76         Ni80   1.928       .  S
O76          C83   1.282       .  A
O77         Ni80   1.902       .  S
O77          C82   1.277       .  A
O78         Ni80   1.908       .  S
O78          C81   1.277       .  A
Ni79        Ni80   2.394       .  S
C81         C615   1.439       .  S
C82         C609   1.433       .  S
C83         C611   1.434       .  S
C84         C640   1.436       .  S
O85         Ni93   1.934       .  S
O85          C95   1.284       .  A
O86         Ni93   1.929       .  S
O86          C96   1.282       .  A
O87         Ni93   1.909       .  S
O87          C97   1.277       .  A
O88         Ni93   1.905       .  S
O88          C98   1.277       .  A
O89         Ni94   1.928       .  S
O89          C98   1.282       .  A
O90         Ni94   1.927       .  S
O90          C97   1.283       .  A
O91         Ni94   1.902       .  S
O91          C96   1.277       .  A
O92         Ni94   1.908       .  S
O92          C95   1.277       .  A
Ni93        Ni94   2.394       .  S
C95         C605   1.439       .  S
C96         C603   1.433       .  S
C97         C619   1.436       .  S
C98         C607   1.434       .  S
O99        Ni107   1.934       .  S
O99         C109   1.284       .  A
O100       Ni107   1.929       .  S
O100        C110   1.282       .  A
O101       Ni107   1.909       .  S
O101        C111   1.277       .  A
O102       Ni107   1.905       .  S
O102        C112   1.277       .  A
O103       Ni108   1.928       .  S
O103        C112   1.282       .  A
O104       Ni108   1.928       .  S
O104        C111   1.283       .  A
O105       Ni108   1.902       .  S
O105        C110   1.277       .  A
O106       Ni108   1.908       .  S
O106        C109   1.277       .  A
Ni107      Ni108   2.394       .  S
C109        C606   1.439       .  S
C110        C599   1.433       .  S
C111        C630   1.436       .  S
C112        C602   1.434       .  S
O113       Ni121   1.934       .  S
O113        C123   1.284       .  A
O114       Ni121   1.929       .  S
O114        C124   1.282       .  A
O115       Ni121   1.905       .  S
O115        C125   1.277       .  A
O116       Ni121   1.909       .  S
O116        C126   1.277       .  A
O117       Ni122   1.928       .  S
O117        C126   1.283       .  A
O118       Ni122   1.928       .  S
O118        C125   1.282       .  A
O119       Ni122   1.902       .  S
O119        C124   1.277       .  A
O120       Ni122   1.908       .  S
O120        C123   1.277       .  A
Ni121      Ni122   2.394       .  S
C123        C595   1.439       .  S
C124        C591   1.433       .  S
C125        C598   1.434       .  S
C126        C594   1.436       .  S
O127       Ni135   1.934       .  S
O127        C137   1.284       .  A
O128       Ni135   1.929       .  S
O128        C138   1.282       .  A
O129       Ni135   1.905       .  S
O129        C139   1.277       .  A
O130       Ni135   1.909       .  S
O130        C140   1.277       .  A
O131       Ni136   1.928       .  S
O131        C140   1.283       .  A
O132       Ni136   1.928       .  S
O132        C139   1.282       .  A
O133       Ni136   1.902       .  S
O133        C138   1.277       .  A
O134       Ni136   1.908       .  S
O134        C137   1.277       .  A
Ni135      Ni136   2.394       .  S
C137        C596   1.439       .  S
C138        C587   1.433       .  S
C139        C589   1.433       .  S
C140        C648   1.436       .  S
O141       Ni149   1.934       .  S
O141        C151   1.284       .  A
O142       Ni149   1.929       .  S
O142        C152   1.282       .  A
O143       Ni149   1.909       .  S
O143        C153   1.277       .  A
O144       Ni149   1.905       .  S
O144        C154   1.277       .  A
O145       Ni150   1.928       .  S
O145        C154   1.282       .  A
O146       Ni150   1.927       .  S
O146        C153   1.283       .  A
O147       Ni150   1.903       .  S
O147        C152   1.277       .  A
O148       Ni150   1.908       .  S
O148        C151   1.277       .  A
Ni149      Ni150   2.394       .  S
C151        C583   1.439       .  S
C152        C581   1.433       .  S
C153        C626   1.436   1_455  S
C154        C585   1.434       .  S
O155       Ni163   1.934       .  S
O155        C165   1.284       .  A
O156       Ni163   1.930       .  S
O156        C166   1.282       .  A
O157       Ni163   1.909       .  S
O157        C167   1.277       .  A
O158       Ni163   1.905       .  S
O158        C168   1.277       .  A
O159       Ni164   1.928       .  S
O159        C168   1.282       .  A
O160       Ni164   1.928       .  S
O160        C167   1.283       .  A
O161       Ni164   1.902       .  S
O161        C166   1.277       .  A
O162       Ni164   1.908       .  S
O162        C165   1.277       .  A
Ni163      Ni164   2.394       .  S
C165        C584   1.439       .  S
C166        C577   1.433       .  S
C167        C593   1.436       .  S
C168        C579   1.434   1_654  S
O169       Ni177   1.934       .  S
O169        C179   1.284       .  A
O170       Ni177   1.930       .  S
O170        C180   1.282       .  A
O171       Ni177   1.909       .  S
O171        C181   1.277       .  A
O172       Ni177   1.905       .  S
O172        C182   1.277       .  A
O173       Ni178   1.927       .  S
O173        C182   1.282       .  A
O174       Ni178   1.927       .  S
O174        C181   1.282       .  A
O175       Ni178   1.903       .  S
O175        C180   1.277       .  A
O176       Ni178   1.909       .  S
O176        C179   1.277       .  A
Ni177      Ni178   2.394       .  S
C179        C575   1.440       .  S
C180        C572   1.433       .  S
C181        C574   1.435       .  S
C182        C588   1.433       .  S
O183       Ni191   1.934   1_565  S
O183        C193   1.284   1_565  A
O184       Ni191   1.930       .  S
O184        C194   1.282       .  A
O185       Ni191   1.909       .  S
O185        C195   1.277       .  A
O186       Ni191   1.906   1_565  S
O186        C196   1.277       .  A
O187       Ni192   1.928       .  S
O187        C196   1.282   1_545  A
O188       Ni192   1.927       .  S
O188        C195   1.283       .  A
O189       Ni192   1.903       .  S
O189        C194   1.277       .  A
O190       Ni192   1.908       .  S
O190        C193   1.277       .  A
Ni191      Ni192   2.394       .  S
C193        C576   1.440   1_545  S
C194        C634   1.433       .  S
C195        C567   1.436       .  S
C196        C570   1.434   1_554  S
O197       Ni205   1.934       .  S
O197        C207   1.284       .  A
O198       Ni205   1.930       .  S
O198        C208   1.282       .  A
O199       Ni205   1.906       .  S
O199        C209   1.277       .  A
O200       Ni205   1.909       .  S
O200        C210   1.277       .  A
O201       Ni206   1.927       .  S
O201        C210   1.283       .  A
O202       Ni206   1.928       .  S
O202        C209   1.282       .  A
O203       Ni206   1.903       .  S
O203        C208   1.277       .  A
O204       Ni206   1.908       .  S
O204        C207   1.277       .  A
Ni205      Ni206   2.394       .  S
C207        C563   1.440       .  S
C208        C638   1.433       .  S
C209        C565   1.434       .  S
C210        C568   1.436       .  S
O211       Ni219   1.934       .  S
O211        C221   1.284       .  A
O212       Ni219   1.930       .  S
O212        C222   1.282       .  A
O213       Ni219   1.905       .  S
O213        C223   1.277       .  A
O214       Ni219   1.909       .  S
O214        C224   1.277       .  A
O215       Ni220   1.927       .  S
O215        C224   1.282       .  A
O216       Ni220   1.927       .  S
O216        C223   1.282       .  A
O217       Ni220   1.903       .  S
O217        C222   1.277       .  A
O218       Ni220   1.909       .  S
O218        C221   1.277       .  A
Ni219      Ni220   2.394       .  S
C221        C564   1.440       .  S
C222        C559   1.433       .  S
C223        C582   1.433       .  S
C224        C561   1.435       .  S
O225       Ni233   1.934       .  S
O225        C235   1.284       .  A
O226       Ni233   1.930       .  S
O226        C236   1.282       .  A
O227       Ni233   1.909       .  S
O227        C237   1.277       .  A
O228       Ni233   1.905       .  S
O228        C238   1.277       .  A
O229       Ni234   1.927       .  S
O229        C238   1.282       .  A
O230       Ni234   1.927       .  S
O230        C237   1.282       .  A
O231       Ni234   1.903       .  S
O231        C236   1.277       .  A
O232       Ni234   1.909       .  S
O232        C235   1.277       .  A
Ni233      Ni234   2.394       .  S
C235        C558   1.440       .  S
C236        C555   1.433       .  S
C237        C562   1.435       .  S
C238        C614   1.433       .  S
O239       Ni247   1.934       .  S
O239        C249   1.284       .  A
O240       Ni247   1.930       .  S
O240        C250   1.282       .  A
O241       Ni247   1.909       .  S
O241        C251   1.277       .  A
O242       Ni247   1.905       .  S
O242        C252   1.277       .  A
O243       Ni248   1.928       .  S
O243        C252   1.282       .  A
O244       Ni248   1.927       .  S
O244        C251   1.283       .  A
O245       Ni248   1.903       .  S
O245        C250   1.277       .  A
O246       Ni248   1.908       .  S
O246        C249   1.277       .  A
Ni247      Ni248   2.394       .  S
C249        C557   1.440       .  S
C250        C597   1.433       .  S
C251        C552   1.436       .  S
C252        C553   1.434       .  S
O253       Ni261   1.934       .  S
O253        C263   1.284       .  A
O254       Ni261   1.930       .  S
O254        C264   1.282       .  A
O255       Ni261   1.905       .  S
O255        C265   1.277       .  A
O256       Ni261   1.909       .  S
O256        C266   1.277       .  A
O257       Ni262   1.927       .  S
O257        C266   1.283       .  A
O258       Ni262   1.928       .  S
O258        C265   1.282       .  A
O259       Ni262   1.903       .  S
O259        C264   1.277       .  A
O260       Ni262   1.908       .  S
O260        C263   1.277       .  A
Ni261      Ni262   2.394       .  S
C263        C548   1.440       .  S
C264        C601   1.433       .  S
C265        C549   1.434       .  S
C266        C551   1.436       .  S
O267       Ni275   1.934       .  S
O267        C277   1.284       .  A
O268       Ni275   1.930       .  S
O268        C278   1.282       .  A
O269       Ni275   1.905       .  S
O269        C279   1.277       .  A
O270       Ni275   1.909       .  S
O270        C280   1.277       .  A
O271       Ni276   1.927       .  S
O271        C280   1.282       .  A
O272       Ni276   1.928       .  S
O272        C279   1.282       .  A
O273       Ni276   1.903       .  S
O273        C278   1.277       .  A
O274       Ni276   1.909       .  S
O274        C277   1.277       .  A
Ni275      Ni276   2.394       .  S
C277        C547   1.440       .  S
C278        C544   1.433       .  S
C279        C642   1.433       .  S
C280        C545   1.435       .  S
O281       Ni289   1.934       .  S
O281        C291   1.284       .  A
O282       Ni289   1.930       .  S
O282        C292   1.282       .  A
O283       Ni289   1.909       .  S
O283        C293   1.277       .  A
O284       Ni289   1.905       .  S
O284        C294   1.277       .  A
O285       Ni290   1.928       .  S
O285        C294   1.282       .  A
O286       Ni290   1.927       .  S
O286        C293   1.282       .  A
O287       Ni290   1.903       .  S
O287        C292   1.277       .  A
O288       Ni290   1.909       .  S
O288        C291   1.277       .  A
Ni289      Ni290   2.394       .  S
C291        C542   1.440       .  S
C292        C539   1.433       .  S
C293        C546   1.435       .  S
C294        C621   1.433       .  S
O295       Ni303   1.934       .  S
O295        C305   1.284       .  A
O296       Ni303   1.930       .  S
O296        C306   1.282       .  A
O297       Ni303   1.909       .  S
O297        C307   1.277       .  A
O298       Ni303   1.905       .  S
O298        C308   1.277       .  A
O299       Ni304   1.928       .  S
O299        C308   1.282       .  A
O300       Ni304   1.927       .  S
O300        C307   1.283       .  A
O301       Ni304   1.903       .  S
O301        C306   1.277       .  A
O302       Ni304   1.908       .  S
O302        C305   1.277       .  A
Ni303      Ni304   2.394       .  S
C305        C541   1.440       .  S
C306        C612   1.433       .  S
C307        C537   1.436       .  S
C308        C535   1.433       .  S
O309       Ni317   1.934       .  S
O309        C319   1.284       .  A
O310       Ni317   1.930       .  S
O310        C320   1.282       .  A
O311       Ni317   1.905       .  S
O311        C321   1.277       .  A
O312       Ni317   1.909       .  S
O312        C322   1.277       .  A
O313       Ni318   1.927       .  S
O313        C322   1.282       .  A
O314       Ni318   1.927       .  S
O314        C321   1.282       .  A
O315       Ni318   1.903       .  S
O315        C320   1.277       .  A
O316       Ni318   1.909       .  S
O316        C319   1.277       .  A
Ni317      Ni318   2.394       .  S
C319        C533   1.440       .  S
C320        C531   1.433       .  S
C321        C604   1.433       .  S
C322        C573   1.435   1_545  S
O323       Ni331   1.934       .  S
O323        C333   1.284       .  A
O324       Ni331   1.930       .  S
O324        C334   1.282       .  A
O325       Ni331   1.905       .  S
O325        C335   1.277       .  A
O326       Ni331   1.909       .  S
O326        C336   1.277       .  A
O327       Ni332   1.927       .  S
O327        C336   1.283       .  A
O328       Ni332   1.928   1_554  S
O328        C335   1.282   1_554  A
O329       Ni332   1.903       .  S
O329        C334   1.277       .  A
O330       Ni332   1.908       .  S
O330        C333   1.277       .  A
Ni331      Ni332   2.394       .  S
C333        C534   1.440       .  S
C334        C580   1.433       .  S
C335        C530   1.433   1_566  S
C336        C538   1.436       .  S
O337       Ni345   1.934       .  S
O337        C347   1.284       .  A
O338       Ni345   1.930       .  S
O338        C348   1.282       .  A
O339       Ni345   1.905       .  S
O339        C349   1.277       .  A
O340       Ni345   1.909       .  S
O340        C350   1.277       .  A
O341       Ni346   1.927       .  S
O341        C350   1.283       .  A
O342       Ni346   1.928       .  S
O342        C349   1.282       .  A
O343       Ni346   1.903       .  S
O343        C348   1.277       .  A
O344       Ni346   1.908       .  S
O344        C347   1.277       .  A
Ni345      Ni346   2.394       .  S
C347        C526   1.440       .  S
C348        C608   1.433       .  S
C349        C540   1.434       .  S
C350        C527   1.436       .  S
O351       Ni359   1.934       .  S
O351        C361   1.284       .  A
O352       Ni359   1.930       .  S
O352        C362   1.282       .  A
O353       Ni359   1.905       .  S
O353        C363   1.277       .  A
O354       Ni359   1.909       .  S
O354        C364   1.277       .  A
O355       Ni360   1.927       .  S
O355        C364   1.282       .  A
O356       Ni360   1.928   1_554  S
O356        C363   1.282   1_554  A
O357       Ni360   1.903       .  S
O357        C362   1.277       .  A
O358       Ni360   1.909       .  S
O358        C361   1.277       .  A
Ni359      Ni360   2.394       .  S
C361        C525   1.440       .  S
C362        C569   1.433       .  S
C363        C578   1.433   1_556  S
C364        C524   1.435       .  S
O365       Ni373   1.934       .  S
O365        C375   1.284       .  A
O366       Ni373   1.930       .  S
O366        C376   1.282       .  A
O367       Ni373   1.909       .  S
O367        C377   1.277       .  A
O368       Ni373   1.905       .  S
O368        C378   1.277       .  A
O369       Ni374   1.928       .  S
O369        C378   1.282       .  A
O370       Ni374   1.927       .  S
O370        C377   1.283       .  A
O371       Ni374   1.903       .  S
O371        C376   1.277       .  A
O372       Ni374   1.908       .  S
O372        C375   1.277       .  A
Ni373      Ni374   2.394       .  S
C375        C522   1.440       .  S
C376        C623   1.433       .  S
C377        C520   1.436       .  S
C378        C532   1.433       .  S
O379       Ni387   1.934       .  S
O379        C389   1.284       .  A
O380       Ni387   1.930       .  S
O380        C390   1.282       .  A
O381       Ni387   1.909       .  S
O381        C391   1.277       .  A
O382       Ni387   1.905       .  S
O382        C392   1.277       .  A
O383       Ni388   1.927       .  S
O383        C392   1.282       .  A
O384       Ni388   1.927       .  S
O384        C391   1.282       .  A
O385       Ni388   1.903       .  S
O385        C390   1.277       .  A
O386       Ni388   1.909       .  S
O386        C389   1.277       .  A
Ni387      Ni388   2.394       .  S
C389        C521   1.440       .  S
C390        C550   1.433       .  S
C391        C523   1.435       .  S
C392        C610   1.433       .  S
O393       Ni401   1.934       .  S
O393        C403   1.284       .  A
O394       Ni401   1.930       .  S
O394        C404   1.282       .  A
O395       Ni401   1.905       .  S
O395        C405   1.277       .  A
O396       Ni401   1.909       .  S
O396        C406   1.277       .  A
O397       Ni402   1.927       .  S
O397        C406   1.283       .  A
O398       Ni402   1.928       .  S
O398        C405   1.282       .  A
O399       Ni402   1.903       .  S
O399        C404   1.277       .  A
O400       Ni402   1.908       .  S
O400        C403   1.277       .  A
Ni401      Ni402   2.394       .  S
C403        C518   1.440       .  S
C404        C646   1.433       .  S
C405        C556   1.433   1_655  S
C406        C519   1.436       .  S
O407       Ni415   1.934       .  S
O407        C417   1.284       .  A
O408       Ni415   1.930       .  S
O408        C418   1.282       .  A
O409       Ni415   1.905       .  S
O409        C419   1.277       .  A
O410       Ni415   1.909       .  S
O410        C420   1.277       .  A
O411       Ni416   1.927       .  S
O411        C420   1.282       .  A
O412       Ni416   1.927       .  S
O412        C419   1.282       .  A
O413       Ni416   1.903       .  S
O413        C418   1.277       .  A
O414       Ni416   1.909       .  S
O414        C417   1.277       .  A
Ni415      Ni416   2.394       .  S
C417        C517   1.440       .  S
C418        C536   1.433       .  S
C419        C600   1.433       .  S
C420        C515   1.435   1_455  S
O421       Ni429   1.934       .  S
O421        C431   1.284       .  A
O422       Ni429   1.930       .  S
O422        C432   1.282       .  A
O423       Ni429   1.909       .  S
O423        C433   1.277       .  A
O424       Ni429   1.905       .  S
O424        C434   1.277       .  A
O425       Ni430   1.927       .  S
O425        C434   1.282       .  A
O426       Ni430   1.927       .  S
O426        C433   1.282       .  A
O427       Ni430   1.903       .  S
O427        C432   1.277       .  A
O428       Ni430   1.909       .  S
O428        C431   1.277       .  A
Ni429      Ni430   2.394       .  S
C431        C514   1.440       .  S
C432        C566   1.433       .  S
C433        C516   1.435       .  S
C434        C592   1.433       .  S
O435       Ni443   1.934   1_655  S
O435        C445   1.284   1_655  A
O436       Ni443   1.930       .  S
O436        C446   1.282       .  A
O437       Ni443   1.909       .  S
O437        C447   1.277       .  A
O438       Ni443   1.905   1_655  S
O438        C448   1.277   1_655  A
O439       Ni444   1.928       .  S
O439        C448   1.282       .  A
O440       Ni444   1.927       .  S
O440        C447   1.283       .  A
O441       Ni444   1.903       .  S
O441        C446   1.277       .  A
O442       Ni444   1.908       .  S
O442        C445   1.277       .  A
Ni443      Ni444   2.394       .  S
C445        C513   1.440   1_455  S
C446        C617   1.433       .  S
C447        C511   1.436       .  S
C448        C543   1.433   1_455  S
O449       Ni457   1.934       .  S
O449        C459   1.284       .  A
O450       Ni457   1.930       .  S
O450        C460   1.282       .  A
O451       Ni457   1.905       .  S
O451        C461   1.277       .  A
O452       Ni457   1.909       .  S
O452        C462   1.277       .  A
O453       Ni458   1.927       .  S
O453        C462   1.282       .  A
O454       Ni458   1.927       .  S
O454        C461   1.282       .  A
O455       Ni458   1.903       .  S
O455        C460   1.277       .  A
O456       Ni458   1.909       .  S
O456        C459   1.277       .  A
Ni457      Ni458   2.394       .  S
C459        C510   1.440       .  S
C460        C554   1.433       .  S
C461        C635   1.433       .  S
C462        C508   1.435       .  S
O463       Ni471   1.934       .  S
O463        C473   1.284       .  A
O464       Ni471   1.930       .  S
O464        C474   1.282       .  A
O465       Ni471   1.905       .  S
O465        C475   1.277       .  A
O466       Ni471   1.909       .  S
O466        C476   1.277       .  A
O467       Ni472   1.927       .  S
O467        C476   1.283       .  A
O468       Ni472   1.928       .  S
O468        C475   1.282       .  A
O469       Ni472   1.903       .  S
O469        C474   1.277       .  A
O470       Ni472   1.908       .  S
O470        C473   1.277       .  A
Ni471      Ni472   2.394       .  S
C473        C509   1.440       .  S
C474        C586   1.433       .  S
C475        C571   1.434       .  S
C476        C512   1.436       .  S
O477       Ni485   1.934       .  S
O477        C487   1.284       .  A
O478       Ni485   1.930       .  S
O478        C488   1.282       .  A
O479       Ni485   1.909       .  S
O479        C489   1.277       .  A
O480       Ni485   1.905       .  S
O480        C490   1.277       .  A
O481       Ni486   1.927       .  S
O481        C490   1.282       .  A
O482       Ni486   1.927       .  S
O482        C489   1.282       .  A
O483       Ni486   1.903       .  S
O483        C488   1.277       .  A
O484       Ni486   1.909       .  S
O484        C487   1.277       .  A
Ni485      Ni486   2.394       .  S
C487        C506   1.440       .  S
C488        C529   1.433       .  S
C489        C507   1.435       .  S
C490        C628   1.433   1_554  S
O491       Ni499   1.934       .  S
O491        C501   1.284       .  A
O492       Ni499   1.930       .  S
O492        C502   1.282       .  A
O493       Ni499   1.909       .  S
O493        C503   1.277       .  A
O494       Ni499   1.905       .  S
O494        C504   1.277       .  A
O495       Ni500   1.928       .  S
O495        C504   1.282       .  A
O496       Ni500   1.927       .  S
O496        C503   1.283       .  A
O497       Ni500   1.903       .  S
O497        C502   1.277       .  A
O498       Ni500   1.908       .  S
O498        C501   1.277       .  A
Ni499      Ni500   2.394       .  S
C501        C505   1.440       .  S
C502        C590   1.433       .  S
C503        C528   1.436       .  S
C504        C560   1.433       .  S
C505        C506   1.209       .  T
C507        C508   1.206       .  T
C509        C510   1.209   1_565  T
C511        C512   1.206       .  T
C513        C514   1.209       .  T
C515        C516   1.206       .  T
C517        C518   1.209   1_455  T
C519        C520   1.206       .  T
C521        C522   1.209   1_565  T
C523        C524   1.206       .  T
C525        C526   1.209       .  T
C527        C528   1.206   1_556  T
C529        C530   1.205       .  T
C531        C532   1.205       .  T
C533        C534   1.209   1_545  T
C535        C536   1.205       .  T
C537        C538   1.206       .  T
C539        C540   1.205       .  T
C541        C542   1.209   1_455  T
C543        C544   1.205       .  T
C545        C546   1.206       .  T
C547        C548   1.209       .  T
C549        C550   1.205       .  T
C551        C552   1.206       .  T
C553        C554   1.205       .  T
C555        C556   1.205       .  T
C557        C558   1.209       .  T
C559        C560   1.205       .  T
C561        C562   1.206       .  T
C563        C564   1.209   1_655  T
C565        C566   1.205       .  T
C567        C568   1.206       .  T
C569        C570   1.205       .  T
C571        C572   1.205       .  T
C573        C574   1.206   1_556  T
C575        C576   1.209       .  T
C577        C578   1.205       .  T
C579        C580   1.205       .  T
C581        C582   1.205       .  T
C583        C584   1.209   1_455  T
C585        C586   1.205       .  T
C587        C588   1.205       .  T
C589        C590   1.205       .  T
C591        C592   1.205       .  T
C593        C594   1.206       .  T
C595        C596   1.208       .  T
C597        C598   1.205       .  T
C599        C600   1.205       .  T
C601        C602   1.205       .  T
C603        C604   1.205       .  T
C605        C606   1.208       .  T
C607        C608   1.205       .  T
C609        C610   1.205       .  T
C611        C612   1.205       .  T
C613        C614   1.205       .  T
C615        C616   1.208       .  T
C617        C618   1.205       .  T
C619        C620   1.206       .  T
C621        C622   1.205       .  T
C623        C624   1.205       .  T
C625        C626   1.206   1_556  T
C627        C628   1.205       .  T
C629        C630   1.206       .  T
C631        C632   1.208       .  T
C633        C634   1.205       .  T
C635        C636   1.205       .  T
C637        C638   1.205       .  T
C639        C640   1.206       .  T
C641        C642   1.205       .  T
C643        C644   1.208   1_545  T
C645        C646   1.205       .  T
C647        C648   1.206       .  T
