geometry optimzed in LAMMPS
_audit_creation_date              2020-12-01 
_audit_creation_method            'lammps2cif' 
_symmetry_space_group_name_H-M    'P1' 
_symmetry_Int_Tables_number       1 
_symmetry_cell_setting            triclinic 
loop_ 
_symmetry_equiv_pos_as_xyz 
  x,y,z 
_cell_length_a                    61.02541863 
_cell_length_b                    60.80283164699355 
_cell_length_c                    60.95504742417296 
_cell_angle_alpha                 90.15837775745933 
_cell_angle_beta                  90.20069781513061 
_cell_angle_gamma                 90.1233070546812 
loop_ 
_atom_site_label 
_atom_site_type_symbol 
_atom_site_fract_x 
_atom_site_fract_y 
_atom_site_fract_z 
_atom_site_charge 
O1          O  0.95023012  0.69432133  0.82629492    -0.54600
C2          C  0.89852024  0.66499815  0.78883945     0.78100
O3          O  0.88190690  0.72285278  0.81700150    -0.55700
C4          C  0.94856854  0.70990904  0.84011966     0.78000
C5          C  0.92865191  0.72532704  0.76451712     0.80400
Cd6        Cd  0.91687926  0.70496240  0.80531518     1.37500
O7          O  0.91683266  0.66506700  0.79880560    -0.54600
O8          O  0.93487753  0.70615452  0.76942469    -0.53400
C9          C  0.87955159  0.70979553  0.83309695     0.80400
O10         O  0.91862403  0.73607258  0.77930977    -0.55700
O11         O  0.88936812  0.68339203  0.78582923    -0.54200
O12         O  0.93465174  0.72468642  0.83581951    -0.54200
O13         O  0.89445634  0.69571704  0.83609951    -0.53400
O14         O  0.96335122  0.68589322  0.90245113    -0.54600
C15         C  0.93595090  0.63339131  0.94066339     0.78100
O16         O  0.98831772  0.61670098  0.90497621    -0.55700
C17         C  0.97800088  0.68437174  0.88772793     0.78000
C18         C  0.00309553  0.65781462  0.95883523     0.80400
Cd19       Cd  0.97479679  0.65151329  0.92128788     1.37500
O20         O  0.93561940  0.65232083  0.93191415    -0.54600
O21         O  0.98477484  0.66750582  0.95743861    -0.53400
C22         C  0.97442456  0.61720310  0.88939080     0.80400
O23         O  0.00918818  0.64700159  0.94212538    -0.55700
O24         O  0.95428266  0.62378619  0.94151735    -0.54200
O25         O  0.99315914  0.67060023  0.89108446    -0.54200
O26         O  0.96170884  0.63349035  0.88861992    -0.53400
O27         O  0.92710388  0.54238262  0.81244104    -0.54600
C28         C  0.96855126  0.56049112  0.86487768     0.78100
O29         O  0.93497016  0.50655129  0.87782164    -0.55700
C30         C  0.91233808  0.52762557  0.81152766     0.78000
C31         C  0.98399653  0.49842668  0.83043370     0.80400
Cd32       Cd  0.94719490  0.52469418  0.84339553     1.37500
O33         O  0.96008189  0.56294963  0.84596223    -0.54600
O34         O  0.98265123  0.51860968  0.82563333    -0.53400
C35         C  0.91906784  0.51973703  0.88036003     0.80400
O36         O  0.96735790  0.48974129  0.83935943    -0.55700
O37         O  0.96790330  0.54146895  0.87308476    -0.54200
O38         O  0.91559910  0.51047305  0.82277439    -0.54200
O39         O  0.91612425  0.53394068  0.86556392    -0.53400
O40         O  0.85017756  0.55518645  0.79537848    -0.54600
C41         C  0.80586013  0.60783426  0.81379328     0.78100
O42         O  0.83860166  0.62051989  0.75972707    -0.55700
C43         C  0.86583585  0.55686533  0.78174492     0.78000
C44         C  0.79334527  0.56783392  0.75254558     0.80400
Cd45       Cd  0.82842622  0.58560096  0.77872526     1.37500
O46         O  0.81793478  0.59126583  0.81767268    -0.54600
O47         O  0.79589978  0.56257211  0.77248261    -0.53400
C48         C  0.85483228  0.62375880  0.77246837     0.80400
O49         O  0.80841814  0.57929280  0.74392274    -0.55700
O50         O  0.80312993  0.61286579  0.79389756    -0.54200
O51         O  0.86263248  0.56922867  0.76539086    -0.54200
O52         O  0.85848897  0.60933009  0.78686228    -0.53400
O53         O  0.82216058  0.66227961  0.93400888    -0.54600
C54         C  0.84078326  0.69240002  0.87835530     0.78100
O55         O  0.81534738  0.63944639  0.88358172    -0.55700
C56         C  0.80956921  0.64616617  0.93792010     0.78000
C57         C  0.77612410  0.71182466  0.90755693     0.80400
Cd58       Cd  0.80369369  0.67354731  0.89978366     1.37500
O59         O  0.84169090  0.68634850  0.89822552    -0.54600
O60         O  0.79677606  0.71248848  0.90875884    -0.53400
C61         C  0.80165917  0.63829349  0.86811568     0.80400
O62         O  0.76768090  0.69307178  0.90377978    -0.55700
O63         O  0.82247821  0.69055432  0.86867047    -0.54200
O64         O  0.79245106  0.64464341  0.92618370    -0.54200
O65         O  0.78734141  0.65346130  0.86715533    -0.53400
O66         O  0.85872135  0.54942071  0.92094535    -0.54600
C67         C  0.82429504  0.58961261  0.95708752     0.78100
O68         O  0.86160945  0.54057352  0.99630598    -0.55700
C69         C  0.87646972  0.53869873  0.92105810     0.78000
C70         C  0.89678280  0.58925869  0.96137737     0.80400
Cd71       Cd  0.86016943  0.55912529  0.96006773     1.37500
O72         O  0.82477525  0.57221376  0.94563325    -0.54600
O73         O  0.88123179  0.59083974  0.94777358    -0.53400
C74         C  0.85220998  0.52306816  0.98990740     0.80400
O75         O  0.89528557  0.57400835  0.97545731    -0.55700
O76         O  0.83849314  0.59127996  0.97221633    -0.54200
O77         O  0.88579248  0.53613803  0.93941945    -0.54200
O78         O  0.84494123  0.52299889  0.97045091    -0.53400
O79         O  0.08742917  0.95048943  0.29592501    -0.54600
C80         C  0.04414630  0.92594521  0.34395527     0.78100
O81         O  0.07947163  0.97970532  0.36467720    -0.55700
C82         C  0.10316648  0.96402092  0.29825581     0.78000
C83         C  0.03231540  0.99404662  0.31782056     0.80400
Cd84       Cd  0.06725777  0.96422005  0.32880486     1.37500
O85         O  0.05561654  0.92531954  0.32665903    -0.54600
O86         O  0.03351870  0.97500740  0.30946612    -0.53400
C87         C  0.09450636  0.96554848  0.36722692     0.80400
O88         O  0.04844122  0.00025964  0.32945537    -0.55700
O89         O  0.04233580  0.94442053  0.35332577    -0.54200
O90         O  0.10045093  0.97929961  0.31208044    -0.54200
O91         O  0.09675118  0.95146223  0.35214470    -0.53400
O92         O  0.16454974  0.93552840  0.28533393    -0.54600
C93         C  0.20565643  0.88688232  0.31221919     0.78100
O94         O  0.17228485  0.86632804  0.25772864    -0.55700
C95         C  0.14981055  0.93406498  0.27063409     0.78000
C96         C  0.22308084  0.91084714  0.24708702     0.80400
Cd97       Cd  0.18479163  0.90231062  0.27299892     1.37500
O98         O  0.19672120  0.90572476  0.31180702    -0.54600
O99         O  0.22089232  0.91841413  0.26629410    -0.53400
C100        C  0.15703501  0.86436243  0.27171666     0.80400
O101        O  0.20646017  0.90152092  0.23861717    -0.55700
O102        O  0.20536977  0.87593127  0.29456167    -0.54200
O103        O  0.15318213  0.92036836  0.25536361    -0.54200
O104        O  0.15479129  0.87987830  0.28534420    -0.53400
O105        O  0.04521734  0.81993447  0.40175429    -0.54600
C106        C  0.06309756  0.87614396  0.43866373     0.78100
O107        O  0.00865134  0.88530009  0.40245008    -0.55700
C108        C  0.03122951  0.81789043  0.38639738     0.78000
C109        C  0.00326922  0.84013622  0.45631082     0.80400
Cd110      Cd  0.02779021  0.85258918  0.41811377     1.37500
O111        O  0.06614173  0.85692344  0.43100849    -0.54600
O112        O  0.02353648  0.83637814  0.45441216    -0.53400
C113        C  0.02226720  0.88710682  0.38680231     0.80400
O114        O  0.99356029  0.84802408  0.43964822    -0.55700
O115        O  0.04400932  0.88394773  0.43694869    -0.54200
O116        O  0.01430518  0.82980823  0.38755250    -0.54200
O117        O  0.03698732  0.87257835  0.38549344    -0.53400
O118        O  0.06243350  0.79748524  0.32854786    -0.54600
C119        C  0.11411601  0.82417287  0.29250093     0.78100
O120        O  0.13345489  0.76829675  0.32060732    -0.55700
C121        C  0.06488692  0.78613080  0.34583625     0.78000
C122        C  0.08456706  0.75514603  0.27641739     0.80400
Cd123      Cd  0.09711583  0.78460441  0.31160272     1.37500
O124        O  0.09706494  0.82454183  0.30430163    -0.54600
O125        O  0.07989081  0.77540499  0.27594241    -0.53400
C126        C  0.13640222  0.78059389  0.33720749     0.80400
O127        O  0.09352274  0.74813886  0.29382779    -0.55700
O128        O  0.12213034  0.80550363  0.28826798    -0.54200
O129        O  0.08040539  0.77241061  0.34589493    -0.54200
O130        O  0.12084278  0.79324274  0.34232321    -0.53400
O131        O  0.20630246  0.83839373  0.42377906    -0.54600
C132        C  0.18055719  0.80002778  0.37687481     0.78100
O133        O  0.21776247  0.85185905  0.37101703    -0.55700
C134        C  0.22063881  0.85354495  0.42332667     0.78000
C135        C  0.24805838  0.78168266  0.40637734     0.80400
Cd136      Cd  0.22133170  0.81819569  0.39211761     1.37500
O137        O  0.18207955  0.80929378  0.39545444    -0.54600
O138        O  0.22816162  0.78354821  0.41169905    -0.53400
C139        C  0.22583905  0.84471780  0.35335830     0.80400
O140        O  0.25628901  0.79748606  0.39565507    -0.55700
O141        O  0.19798125  0.79839913  0.36583914    -0.54200
O142        O  0.23675901  0.85068384  0.41063627    -0.54200
O143        O  0.23382763  0.82547116  0.35382706    -0.53400
O144        O  0.18917394  0.91254148  0.43644074    -0.54600
C145        C  0.13724453  0.94654362  0.40858039     0.78100
O146        O  0.13781654  0.89452167  0.44222411    -0.55700
C147        C  0.18905786  0.89805022  0.45144118     0.78000
C148        C  0.16409527  0.96771783  0.47577459     0.80400
Cd149      Cd  0.15477653  0.92987468  0.44885508     1.37500
O150        O  0.15587979  0.93734133  0.40905301    -0.54600
O151        O  0.16991970  0.96683465  0.45589964    -0.53400
C152        C  0.11975825  0.89853332  0.45131928     0.80400
O153        O  0.15509443  0.95067694  0.48362461    -0.55700
O154        O  0.12759015  0.94903991  0.42673192    -0.54200
O155        O  0.17541152  0.90060172  0.46681691    -0.54200
O156        O  0.11801466  0.91689048  0.46118197    -0.53400
O157        O  0.31413673  0.06307502  0.93752715    -0.54600
C158        C  0.36656382  0.02812257  0.91423129     0.78100
O159        O  0.38454935  0.07014368  0.96168571    -0.55700
C160        C  0.31330988  0.07990947  0.94984361     0.78000
C161        C  0.34437889  0.01620450  0.98400418     0.80400
Cd162      Cd  0.34971465  0.05056060  0.95193203     1.37500
O163        O  0.34709030  0.03529480  0.91466205    -0.54600
O164        O  0.33601517  0.01513228  0.96502384    -0.53400
C165        C  0.38156439  0.08520920  0.94754864     0.80400
O166        O  0.35384684  0.03410528  0.98914025    -0.55700
O167        O  0.37768302  0.02997648  0.93169945    -0.54200
O168        O  0.32691814  0.08079996  0.96557718    -0.54200
O169        O  0.36398854  0.08439987  0.93666396    -0.53400
O170        O  0.34193618  0.17476875  0.89258504    -0.54600
C171        C  0.30277879  0.13731768  0.93234553     0.78100
O172        O  0.26736809  0.18594358  0.89218726    -0.55700
C173        C  0.34097808  0.18246467  0.87329325     0.78000
C174        C  0.29931335  0.13039050  0.86239824     0.80400
Cd175      Cd  0.30241395  0.16523964  0.89435899     1.37500
O176        O  0.31703881  0.15231705  0.92982360    -0.54600
O177        O  0.31097874  0.12908511  0.87945696    -0.53400
C178        C  0.27464763  0.20326448  0.90131910     0.80400
O179        O  0.28749760  0.14747127  0.86045557    -0.55700
O180        O  0.28676030  0.13725499  0.91906915    -0.54200
O181        O  0.32222798  0.18332684  0.86448046    -0.54200
O182        O  0.29409987  0.20246262  0.90853360    -0.53400
O183        O  0.41509857  0.02614496  0.79834201    -0.54600
C184        C  0.45129736  0.05582943  0.84740458     0.78100
O185        O  0.40391652  0.02358240  0.85699537    -0.55700
C186        C  0.39876619  0.01347049  0.80111743     0.78000
C187        C  0.47168731  0.98725235  0.82430169     0.80400
Cd188      Cd  0.43384358  0.01444352  0.83278871     1.37500
O189        O  0.43934487  0.05478841  0.83037084    -0.54600
O190        O  0.47158865  0.00761731  0.82015247    -0.53400
C191        C  0.40865166  0.01046817  0.87228493     0.80400
O192        O  0.45359293  0.97884399  0.83007559    -0.55700
O193        O  0.45615262  0.03781982  0.85646451    -0.54200
O194        O  0.40066911  0.99897805  0.81581855    -0.54200
O195        O  0.42503764  0.99807527  0.86925393    -0.53400
O196        O  0.34033828  0.04677830  0.78655445    -0.54600
C197        C  0.30424486  0.10340978  0.80623165     0.78100
O198        O  0.33600957  0.11254709  0.74980720    -0.55700
C199        C  0.35455165  0.04488127  0.77145869     0.78000
C200        C  0.28419359  0.06741475  0.74447267     0.80400
Cd201      Cd  0.32249396  0.07947561  0.76969197     1.37500
O202        O  0.31276731  0.08457468  0.80914217    -0.54600
O203        O  0.28544605  0.06415095  0.76492436    -0.53400
C204        C  0.35335829  0.11400372  0.76128597     0.80400
O205        O  0.30137793  0.07440024  0.73515240    -0.55700
O206        O  0.30366852  0.11044306  0.78676775    -0.54200
O207        O  0.35189684  0.05672518  0.75465213    -0.54200
O208        O  0.35647742  0.09918279  0.77542080    -0.53400
O209        O  0.44699706  0.18096880  0.81747480    -0.54600
C210        C  0.39815135  0.15368761  0.77750654     0.78100
O211        O  0.38183068  0.21297735  0.81186180    -0.55700
C212        C  0.44524713  0.19562839  0.83226669     0.78000
C213        C  0.42331207  0.21923632  0.75773784     0.80400
Cd214      Cd  0.41458621  0.19369538  0.79661083     1.37500
O215        O  0.41687853  0.15409818  0.78655760    -0.54600
O216        O  0.43808648  0.20695304  0.76564962    -0.53400
C217        C  0.37883560  0.19864510  0.82667743     0.80400
O218        O  0.40620246  0.22161436  0.76918332    -0.55700
O219        O  0.38805988  0.17173263  0.77632019    -0.54200
O220        O  0.43224189  0.21135439  0.82836065    -0.54200
O221        O  0.39220325  0.18282623  0.82729636    -0.53400
O222        O  0.45645423  0.16761741  0.89455347    -0.54600
C223        C  0.43593041  0.11485205  0.93936606     0.78100
O224        O  0.48750004  0.10123447  0.90262623    -0.55700
C225        C  0.47158566  0.16653956  0.88026189     0.78000
C226        C  0.49707005  0.15113613  0.95249690     0.80400
Cd227      Cd  0.47075099  0.13602856  0.91616585     1.37500
O228        O  0.43204624  0.13185338  0.92783334    -0.54600
O229        O  0.47714510  0.15662937  0.95049823    -0.53400
C230        C  0.47260584  0.09820072  0.88826899     0.80400
O231        O  0.50542475  0.14037572  0.93674222    -0.55700
O232        O  0.45570059  0.10895533  0.94108917    -0.54200
O233        O  0.48738020  0.15372574  0.88434803    -0.54200
O234        O  0.45790063  0.11273192  0.88683729    -0.53400
O235        O  0.19264118  0.16328979  0.56182781    -0.54600
C236        C  0.18567466  0.19395792  0.62175632     0.78100
O237        O  0.23719429  0.15591337  0.62273307    -0.55700
C238        C  0.20482300  0.14768122  0.55543609     0.78000
C239        C  0.24633758  0.20858284  0.58051497     0.80400
Cd240      Cd  0.21671959  0.17388840  0.59257535     1.37500
O241        O  0.18075734  0.19111775  0.60167735    -0.54600
O242        O  0.22580425  0.21117993  0.58071041    -0.53400
C243        C  0.22424656  0.13958693  0.62366742     0.80400
O244        O  0.25336167  0.18942789  0.58459812    -0.55700
O245        O  0.20462851  0.18816931  0.62768283    -0.54200
O246        O  0.22338175  0.14591711  0.56458410    -0.54200
O247        O  0.20956551  0.13832736  0.60902533    -0.53400
O248        O  0.18800193  0.07400686  0.54388572    -0.54600
C249        C  0.13756639  0.04417370  0.56611280     0.78100
O250        O  0.13801716  0.09730238  0.51618112    -0.55700
C251        C  0.18870568  0.09223112  0.53385674     0.78000
C252        C  0.16435114  0.02737209  0.49458119     0.80400
Cd253      Cd  0.15424182  0.06156901  0.52557555     1.37500
O254        O  0.12921432  0.03898444  0.54779828    -0.54600
O255        O  0.17166022  0.02742173  0.51397784    -0.53400
C256        C  0.11863895  0.09153678  0.52049105     0.80400
O257        O  0.15392832  0.04427864  0.48854524    -0.55700
O258        O  0.15440928  0.05633753  0.56567275    -0.54200
O259        O  0.17515851  0.09497087  0.51835431    -0.54200
O260        O  0.11542830  0.07130282  0.52416716    -0.53400
O261        O  0.16554499  0.04975368  0.69118421    -0.54600
C262        C  0.20354507  0.09767953  0.66413749     0.78100
O263        O  0.17465866  0.11764076  0.72309247    -0.55700
C264        C  0.15078779  0.05068311  0.70576232     0.78000
C265        C  0.22344196  0.07014249  0.73009448     0.80400
Cd266      Cd  0.18549407  0.08245391  0.70464611     1.37500
O267        O  0.19203481  0.08032779  0.66486337    -0.54600
O268        O  0.22153121  0.06508029  0.71004354    -0.53400
C269        C  0.15904591  0.12110877  0.70974290     0.80400
O270        O  0.20714597  0.07949094  0.73890677    -0.55700
O271        O  0.20748613  0.10725461  0.68219750    -0.54200
O272        O  0.15398184  0.06395498  0.72144800    -0.54200
O273        O  0.15594630  0.10679932  0.69501782    -0.53400
O274        O  0.08980178  0.03727669  0.67766116    -0.54600
C275        C  0.04398356  0.06006931  0.62896301     0.78100
O276        O  0.08516436  0.00592804  0.61261391    -0.55700
C277        C  0.10455069  0.02261672  0.67608125     0.78000
C278        C  0.03285619  0.99528684  0.65654056     0.80400
Cd279      Cd  0.06876814  0.02369946  0.64552963     1.37500
O280        O  0.05674621  0.06271364  0.64528738    -0.54600
O281        O  0.03986396  0.00918022  0.67044819    -0.53400
C282        C  0.09683130  0.02257609  0.60795171     0.80400
O283        O  0.04403220  0.99292328  0.63920493    -0.55700
O284        O  0.04172177  0.04072882  0.62180244    -0.54200
O285        O  0.10104396  0.00710454  0.66262472    -0.54200
O286        O  0.09546058  0.03899473  0.62063637    -0.53400
O287        O  0.06458358  0.18657043  0.66707284    -0.54600
C288        C  0.11662185  0.16386809  0.69346736     0.78100
O289        O  0.13683470  0.20762816  0.66985307    -0.55700
C290        C  0.06229483  0.19892313  0.65049550     0.78000
C291        C  0.08932657  0.23209685  0.71852473     0.80400
Cd292      Cd  0.09812537  0.20508953  0.68044136     1.37500
O293        O  0.09848058  0.16471220  0.68333537    -0.54600
O294        O  0.08429586  0.21196276  0.71776630    -0.53400
C295        C  0.13327215  0.21239288  0.64997674     0.80400
O296        O  0.09682555  0.24038894  0.70106262    -0.55700
O297        O  0.12553815  0.18200618  0.69841707    -0.54200
O298        O  0.07472405  0.21556924  0.64941038    -0.54200
O299        O  0.11373652  0.21694642  0.64489257    -0.53400
O300        O  0.05958213  0.17695352  0.57849780    -0.54600
C301        C  0.06701011  0.11780739  0.54216115     0.78100
O302        O  0.02224394  0.11481411  0.58814877    -0.55700
C303        C  0.04632651  0.18220052  0.59364807     0.78000
C304        C  0.00841267  0.15625008  0.53098500     0.80400
Cd305      Cd  0.03783140  0.14537560  0.56598789     1.37500
O306        O  0.07216192  0.13774472  0.54596812    -0.54600
O307        O  0.02864811  0.16078211  0.53044245    -0.53400
C308        C  0.03806546  0.11527146  0.60183534     0.80400
O309        O  0.00103727  0.14838722  0.54879912    -0.55700
O310        O  0.04859659  0.11127113  0.54895796    -0.54200
O311        O  0.02793563  0.17246253  0.59388637    -0.54200
O312        O  0.05243688  0.12999074  0.59926709    -0.53400
O313        O  0.56543308  0.19376481  0.14367039    -0.54600
C314        C  0.61228174  0.17323356  0.18035221     0.78100
O315        O  0.61368547  0.22244292  0.12807342    -0.55700
C316        C  0.56381458  0.20804130  0.12855740     0.78000
C317        C  0.58202097  0.23978403  0.19933810     0.80400
Cd318      Cd  0.59533068  0.21305612  0.16275366     1.37500
O319        O  0.59540127  0.17287536  0.16815787    -0.54600
O320        O  0.57619254  0.21992440  0.19750612    -0.53400
C321        C  0.63287219  0.21920131  0.13501600     0.80400
O322        O  0.59219630  0.24802881  0.18325294    -0.55700
O323        O  0.62044310  0.19184400  0.18480211    -0.54200
O324        O  0.57460285  0.22566947  0.13098484    -0.54200
O325        O  0.63501686  0.21630524  0.15546313    -0.53400
O326        O  0.54904762  0.17792583  0.06846175    -0.54600
C327        C  0.58278229  0.13077572  0.03283155     0.78100
O328        O  0.52577686  0.10542859  0.05985445    -0.55700
C329        C  0.53698906  0.17389369  0.08490219     0.78000
C330        C  0.51330001  0.15279362  0.01280206     0.80400
Cd331      Cd  0.54080974  0.14252903  0.05005156     1.37500
O332        O  0.58070735  0.14721834  0.04547321    -0.54600
O333        O  0.53307240  0.15897822  0.01393524    -0.53400
C334        C  0.53927688  0.10275671  0.07551417     0.80400
O335        O  0.50561223  0.14326476  0.02957074    -0.55700
O336        O  0.56536927  0.12112695  0.02684211    -0.54200
O337        O  0.52473375  0.15718748  0.08361870    -0.54200
O338        O  0.55257850  0.11828856  0.07911631    -0.53400
O339        O  0.68822289  0.07403332  0.04635808    -0.54600
C340        C  0.63008148  0.03474361  0.05251472     0.78100
O341        O  0.63604242  0.08882406  0.03319682    -0.55700
C342        C  0.69245038  0.08983880  0.03348233     0.78000
C343        C  0.67311702  0.02062597  0.99853012     0.80400
Cd344      Cd  0.65871008  0.05809205  0.02349465     1.37500
O345        O  0.64923961  0.04013080  0.05885660    -0.54600
O346        O  0.67557589  0.02188119  0.01909955    -0.53400
C347        C  0.62552594  0.08995790  0.01530449     0.80400
O348        O  0.66605081  0.03772245  0.98892758    -0.55700
O349        O  0.62464614  0.04011976  0.03326148    -0.54200
O350        O  0.68299913  0.08953745  0.01496921    -0.54200
O351        O  0.63079811  0.07648490  0.00022586    -0.53400
O352        O  0.69749302  0.16428726  0.05308353    -0.54600
C353        C  0.68691773  0.19937500  0.11182891     0.78100
O354        O  0.73460466  0.15474785  0.11697762    -0.55700
C355        C  0.70938113  0.14754348  0.04951688     0.78000
C356        C  0.75019845  0.21003484  0.07701236     0.80400
Cd357      Cd  0.71852255  0.17599806  0.08596189     1.37500
O358        O  0.68295916  0.19497915  0.09181572    -0.54600
O359        O  0.73044915  0.21140011  0.07080069    -0.53400
C360        C  0.71965334  0.14015544  0.11623167     0.80400
O361        O  0.75604874  0.19191965  0.08546886    -0.55700
O362        O  0.70528912  0.19345616  0.11928553    -0.54200
O363        O  0.72707737  0.14620947  0.06035170    -0.54200
O364        O  0.70550105  0.14184240  0.10121171    -0.53400
O365        O  0.69940777  0.09755098  0.16829841    -0.54600
C366        C  0.64801354  0.06639790  0.20146869     0.78100
O367        O  0.69952110  0.09668760  0.24233322    -0.55700
C368        C  0.70984182  0.11542382  0.17134191     0.78000
C369        C  0.65428124  0.13436779  0.20428153     0.80400
Cd370      Cd  0.68302406  0.09760903  0.20531276     1.37500
O371        O  0.66461888  0.06516206  0.18899524    -0.54600
O372        O  0.65454718  0.11962921  0.18964127    -0.53400
C373        C  0.71627157  0.08592938  0.23634994     0.80400
O374        O  0.66768897  0.13235958  0.22013372    -0.55700
O375        O  0.64919448  0.07976807  0.21735098    -0.54200
O376        O  0.70842042  0.12420348  0.19008060    -0.54200
O377        O  0.71629167  0.07855850  0.21692279    -0.53400
O378        O  0.59071478  0.04414585  0.16819770    -0.54600
C379        C  0.55772172  0.06117244  0.11863856     0.78100
O380        O  0.58252779  0.01743737  0.10004951    -0.55700
C381        C  0.60655082  0.03095833  0.17114918     0.78000
C382        C  0.53653790  0.99513620  0.15424385     0.80400
Cd383      Cd  0.57319136  0.02160977  0.13903001     1.37500
O384        O  0.56740349  0.06149315  0.13707807    -0.54600
O385        O  0.53699165  0.01579364  0.15618796    -0.53400
C386        C  0.60241662  0.01256807  0.10337211     0.80400
O387        O  0.55344898  0.98630550  0.14614559    -0.55700
O388        O  0.55434490  0.04248341  0.11003744    -0.54200
O389        O  0.60542186  0.01265526  0.16134695    -0.54200
O390        O  0.60771633  0.00789251  0.12282967    -0.53400
O391        O  0.94632142  0.29980630  0.16522928    -0.54600
C392        C  0.89377466  0.31991918  0.19536839     0.78100
O393        O  0.89664682  0.25816271  0.15171242    -0.55700
C394        C  0.94326556  0.29214331  0.14608015     0.78000
C395        C  0.92758948  0.25403739  0.21918729     0.80400
Cd396      Cd  0.91410619  0.27992038  0.18134229     1.37500
O397        O  0.91151931  0.32006411  0.18464452    -0.54600
O398        O  0.92826224  0.27476813  0.21908909    -0.53400
C399        C  0.87779563  0.26610995  0.15492201     0.80400
O400        O  0.92294229  0.24490569  0.20108113    -0.55700
O401        O  0.88594780  0.30130869  0.20034407    -0.54200
O402        O  0.92903750  0.27716328  0.14422864    -0.54200
O403        O  0.87522943  0.27732327  0.17224095    -0.53400
O404        O  0.93481815  0.34292050  0.02696375    -0.54600
C405        C  0.95131976  0.31439909  0.08825329     0.78100
O406        O  0.00007164  0.34893526  0.04234179    -0.55700
C407        C  0.93160717  0.36294945  0.02259380     0.78000
C408        C  0.96841488  0.38255238  0.08750027     0.80400
Cd409      Cd  0.96157284  0.34794202  0.05642223     1.37500
O410        O  0.93738934  0.32078907  0.07421166    -0.54600
O411        O  0.98020913  0.38111968  0.07048105    -0.53400
C412        C  0.99617235  0.33624419  0.02628155     0.80400
O413        O  0.95313522  0.36861310  0.08951417    -0.55700
O414        O  0.97062001  0.32174694  0.08622352    -0.54200
O415        O  0.93942002  0.37678345  0.03609251    -0.54200
O416        O  0.97754918  0.32717250  0.02592060    -0.53400
O417        O  0.85004468  0.38530082  0.02944246    -0.54600
C418        C  0.88082686  0.43969469  0.07135522     0.78100
O419        O  0.88451186  0.41431930  0.99935123    -0.55700
C420        C  0.83130915  0.38815768  0.03757009     0.78000
C421        C  0.84916182  0.46303930  0.00868032     0.80400
Cd422      Cd  0.86292981  0.42336463  0.03131267     1.37500
O423        O  0.86299592  0.42900527  0.07098115    -0.54600
O424        O  0.85741461  0.46334463  0.02767982    -0.53400
C425        C  0.89716124  0.40057800  0.00843928     0.80400
O426        O  0.84578769  0.44420807  0.00037276    -0.55700
O427        O  0.89059046  0.44235627  0.05329195    -0.54200
O428        O  0.82617861  0.40785701  0.04205895    -0.54200
O429        O  0.89550658  0.39851246  0.02900890    -0.53400
O430        O  0.82660156  0.31470991  0.06120126    -0.54600
C431        C  0.82751101  0.28283089  0.12327660     0.78100
O432        O  0.78312508  0.32953299  0.11740580    -0.55700
C433        C  0.81484626  0.33069710  0.05478467     0.78000
C434        C  0.77246627  0.26897107  0.07826063     0.80400
Cd435      Cd  0.80148066  0.30431661  0.09084450     1.37500
O436        O  0.83466501  0.28512918  0.10383615    -0.54600
O437        O  0.79308689  0.26738010  0.07685829    -0.53400
C438        C  0.79936037  0.34276931  0.11784878     0.80400
O439        O  0.76492958  0.28761606  0.08388451    -0.55700
O440        O  0.80835937  0.28966721  0.12713593    -0.54200
O441        O  0.79556245  0.33187486  0.06235898    -0.54200
O442        O  0.81534819  0.33838715  0.10553555    -0.53400
O443        O  0.84256190  0.42960052  0.19199421    -0.54600
C444        C  0.80128051  0.37508523  0.17068897     0.78100
O445        O  0.83440932  0.36378631  0.22606140    -0.55700
C446        C  0.85675608  0.42916093  0.20734355     0.78000
C447        C  0.78304489  0.41168146  0.23101232     0.80400
Cd448      Cd  0.82137518  0.39764598  0.20679031     1.37500
O449        O  0.81199722  0.39275567  0.16736728    -0.54600
O450        O  0.78495788  0.41520930  0.21064337    -0.53400
C451        C  0.84974048  0.36064338  0.21233610     0.80400
O452        O  0.79952766  0.40334436  0.24061667    -0.55700
O453        O  0.79920716  0.36895894  0.19035498    -0.54200
O454        O  0.85269501  0.41667429  0.22338109    -0.54200
O455        O  0.85174772  0.37464871  0.19721061    -0.53400
O456        O  0.92069666  0.44615435  0.18589437    -0.54600
C457        C  0.95918021  0.41932279  0.13672883     0.78100
O458        O  0.93647222  0.47472506  0.11690133    -0.55700
C459        C  0.90500721  0.45939804  0.18221016     0.78000
C460        C  0.97902202  0.48678162  0.16832481     0.80400
Cd461      Cd  0.94292174  0.45940519  0.15458721     1.37500
O462        O  0.94862069  0.41908961  0.15461861    -0.54600
O463        O  0.97813984  0.46662324  0.17345926    -0.53400
C464        C  0.91952175  0.46284152  0.11430998     0.80400
O465        O  0.96233931  0.49470280  0.15878586    -0.55700
O466        O  0.96460165  0.43792968  0.12929880    -0.54200
O467        O  0.90861410  0.47464658  0.16860191    -0.54200
O468        O  0.91344174  0.45160868  0.13053400    -0.53400
O469        O  0.93799609  0.19543221  0.33790728    -0.54600
C470        C  0.88716696  0.17165118  0.29917601     0.78100
O471        O  0.87024255  0.22678923  0.31821163    -0.55700
C472        C  0.93537548  0.20879310  0.35377000     0.78000
C473        C  0.92369483  0.23751476  0.27942291     0.80400
Cd474      Cd  0.90770333  0.21107821  0.31536098     1.37500
O475        O  0.90597437  0.17068503  0.30809247    -0.54600
O476        O  0.92687615  0.21696749  0.28018629    -0.53400
C477        C  0.86704073  0.21807160  0.33680302     0.80400
O478        O  0.91505218  0.24622081  0.29619797    -0.55700
O479        O  0.87947715  0.19060740  0.29587313    -0.54200
O480        O  0.92243823  0.22468825  0.35048563    -0.54200
O481        O  0.88333924  0.20922272  0.34599774    -0.53400
O482        O  0.94741005  0.17797573  0.41516903    -0.54600
C483        C  0.92587023  0.12481595  0.45578114     0.78100
O484        O  0.97870871  0.11075921  0.41892561    -0.55700
C485        C  0.96234670  0.17795650  0.40066114     0.78000
C486        C  0.98973955  0.15545601  0.47116757     0.80400
Cd487      Cd  0.96213272  0.14493387  0.43429452     1.37500
O488        O  0.92349924  0.14320517  0.44617044    -0.54600
O489        O  0.97003752  0.16187644  0.47025817    -0.53400
C490        C  0.96486011  0.10944724  0.40337092     0.80400
O491        O  0.99723607  0.14589858  0.45427635    -0.55700
O492        O  0.94494426  0.11683386  0.45637141    -0.54200
O493        O  0.97841293  0.16525620  0.40388843    -0.54200
O494        O  0.95036017  0.12421613  0.40254671    -0.53400
O495        O  0.82592338  0.06994050  0.31147565    -0.54600
C496        C  0.77434160  0.11235679  0.32255727     0.78100
O497        O  0.82065097  0.13443036  0.27548039    -0.55700
C498        C  0.83976397  0.06569100  0.29660218     0.78000
C499        C  0.77472996  0.08786831  0.25810317     0.80400
Cd500      Cd  0.80703728  0.09933303  0.29096307     1.37500
O501        O  0.78134782  0.09283454  0.32107747    -0.54600
O502        O  0.77471232  0.07968430  0.27708773    -0.53400
C503        C  0.83773219  0.13505896  0.28739846     0.80400
O504        O  0.79114015  0.09963244  0.25311895    -0.55700
O505        O  0.78508031  0.12691899  0.31236311    -0.54200
O506        O  0.83699816  0.07513387  0.27832652    -0.54200
O507        O  0.84011138  0.11968153  0.30113142    -0.53400
O508        O  0.89848162  0.03007961  0.31412955    -0.54600
C509        C  0.94838112  0.07343550  0.35478540     0.78100
O510        O  0.92576019  0.03066328  0.36955721    -0.55700
C511        C  0.89884067  0.04708478  0.30230759     0.78000
C512        C  0.97233759  0.01101617  0.31536766     0.80400
Cd513      Cd  0.93451318  0.03520649  0.33093699     1.37500
O514        O  0.93706270  0.07512651  0.33738545    -0.54600
O515        O  0.97154127  0.03174011  0.31491163    -0.53400
C516        C  0.90787265  0.02055106  0.36648540     0.80400
O517        O  0.95491494  0.00121006  0.32088582    -0.55700
O518        O  0.95423716  0.05427881  0.36031411    -0.54200
O519        O  0.91697537  0.05727239  0.30117863    -0.54200
O520        O  0.90420624  0.01355924  0.34727054    -0.53400
O521        O  0.85711193  0.03818564  0.41187129    -0.54600
C522        C  0.80964032  0.08439172  0.43145029     0.78100
O523        O  0.84079882  0.04037301  0.48233514    -0.55700
C524        C  0.87716722  0.03766568  0.41742918     0.78000
C525        C  0.87210340  0.09577169  0.45457073     0.80400
Cd526      Cd  0.84549936  0.05792048  0.44597927     1.37500
O527        O  0.81747931  0.06926261  0.41946010    -0.54600
O528        O  0.85877428  0.09467313  0.43874794    -0.53400
C529        C  0.83328387  0.02245837  0.47469284     0.80400
O530        O  0.87259714  0.07953832  0.46767834    -0.55700
O531        O  0.81597056  0.08499030  0.45126659    -0.54200
O532        O  0.88204666  0.04600661  0.43577551    -0.54200
O533        O  0.82963495  0.02181178  0.45427036    -0.53400
O534        O  0.78750082  0.16065608  0.42331870    -0.54600
C535        C  0.82154902  0.19571559  0.37213229     0.78100
O536        O  0.74835443  0.16565804  0.36547518    -0.55700
C537        C  0.78938441  0.14118882  0.41604134     0.78000
C538        C  0.75850781  0.21711136  0.39872455     0.80400
Cd539      Cd  0.78102708  0.17708330  0.38580097     1.37500
O540        O  0.81890863  0.18858292  0.39142756    -0.54600
O541        O  0.77453871  0.21668218  0.38571666    -0.53400
C542        C  0.75790932  0.15178884  0.35325454     0.80400
O543        O  0.75219046  0.19866031  0.40610784    -0.55700
O544        O  0.80569253  0.19341918  0.35885982    -0.54200
O545        O  0.78716445  0.13880924  0.39562175    -0.54200
O546        O  0.77861031  0.15164667  0.35388161    -0.53400
O547        O  0.67047389  0.93088478  0.79294356    -0.54600
C548        C  0.70690257  0.87880828  0.81844117     0.78100
O549        O  0.67886591  0.85974321  0.76330630    -0.55700
C550        C  0.65252465  0.92805173  0.78275231     0.78000
C551        C  0.72195914  0.90982080  0.74928742     0.80400
Cd552      Cd  0.68757934  0.89669011  0.77901221     1.37500
O553        O  0.69638198  0.89673628  0.81879810    -0.54600
O554        O  0.72139815  0.91661578  0.76891576    -0.53400
C555        C  0.66159523  0.85780376  0.77467887     0.80400
O556        O  0.70566668  0.89860339  0.74275156    -0.55700
O557        O  0.70991533  0.87020824  0.79981982    -0.54200
O558        O  0.65208424  0.91287114  0.76850788    -0.54200
O559        O  0.65596192  0.87430570  0.78591876    -0.53400
O560        O  0.58088268  0.92164409  0.80894434    -0.54600
C561        C  0.54655489  0.91323040  0.87143791     0.78100
O562        O  0.59188723  0.96025356  0.86981872    -0.55700
C563        C  0.59519463  0.93587250  0.80360069     0.78000
C564        C  0.53177109  0.96995967  0.83026739     0.80400
Cd565      Cd  0.56821157  0.94218547  0.84145210     1.37500
O566        O  0.55084818  0.90638061  0.85216629    -0.54600
O567        O  0.53234604  0.94977093  0.82514366    -0.53400
C568        C  0.60562309  0.94450064  0.86992378     0.80400
O569        O  0.54884885  0.97794292  0.83927985    -0.55700
O570        O  0.55155566  0.93291216  0.87586614    -0.54200
O571        O  0.59491752  0.95400628  0.81391425    -0.54200
O572        O  0.60218298  0.92882917  0.85669928    -0.53400
O573        O  0.71595925  0.82848826  0.93206037    -0.54600
C574        C  0.68872092  0.78860465  0.88590453     0.78100
O575        O  0.74161505  0.82035146  0.86096046    -0.55700
C576        C  0.72869566  0.84484340  0.92969808     0.78000
C577        C  0.75761045  0.77236723  0.90708503     0.80400
Cd578      Cd  0.72873094  0.80932187  0.89838978     1.37500
O579        O  0.69041284  0.79794984  0.90446593    -0.54600
O580        O  0.76503273  0.79031864  0.89954948    -0.53400
C581        C  0.72782300  0.83584512  0.85914268     0.80400
O582        O  0.73759978  0.77224910  0.91234003    -0.55700
O583        O  0.70572910  0.78793405  0.87413408    -0.54200
O584        O  0.74360695  0.84289602  0.91546948    -0.54200
O585        O  0.71539962  0.83905439  0.87534160    -0.53400
O586        O  0.69599979  0.90417597  0.94300927    -0.54600
C587        C  0.63802274  0.94273093  0.92291873     0.78100
O588        O  0.64456091  0.88895708  0.94549032    -0.55700
C589        C  0.69642490  0.88951731  0.95789427     0.78000
C590        C  0.67325509  0.95951678  0.98418275     0.80400
Cd591      Cd  0.66233757  0.92200586  0.95754096     1.37500
O592        O  0.65661109  0.93412613  0.91902594    -0.54600
O593        O  0.68048955  0.95742747  0.96482703    -0.53400
C594        C  0.62990246  0.88840174  0.96003051     0.80400
O595        O  0.66277238  0.94330125  0.99203501    -0.55700
O596        O  0.63167276  0.94271602  0.94262053    -0.54200
O597        O  0.68343718  0.89205545  0.97383769    -0.54200
O598        O  0.63002743  0.90367489  0.97437208    -0.53400
O599        O  0.57303262  0.79233999  0.83406820    -0.54600
C600        C  0.62263243  0.81527528  0.79782877     0.78100
O601        O  0.64365777  0.76039654  0.82724726    -0.55700
C602        C  0.57393275  0.78220792  0.85218360     0.78000
C603        C  0.59464789  0.74589549  0.78474790     0.80400
Cd604      Cd  0.60699664  0.77607343  0.81910462     1.37500
O605        O  0.60492983  0.81498920  0.80854812    -0.54600
O606        O  0.59115317  0.76631406  0.78366657    -0.53400
C607        C  0.64551311  0.77032567  0.84545747     0.80400
O608        O  0.60187928  0.73868993  0.80285811    -0.55700
O609        O  0.63299143  0.79735077  0.79651174    -0.54200
O610        O  0.58841434  0.76744765  0.85390322    -0.54200
O611        O  0.62930559  0.78158564  0.85164393    -0.53400
O612        O  0.56817069  0.80506486  0.92627658    -0.54600
C613        C  0.57526965  0.85889017  0.95814172     0.78100
O614        O  0.52510283  0.84346684  0.90358298    -0.55700
C615        C  0.55698000  0.79933190  0.90964198     0.78000
C616        C  0.51323980  0.81901852  0.97573083     0.80400
Cd617      Cd  0.54108766  0.83236580  0.93954407     1.37500
O618        O  0.57928678  0.84020886  0.94969999    -0.54600
O619        O  0.53357832  0.81527596  0.97560409    -0.53400
C620        C  0.53096328  0.86333162  0.90536946     0.80400
O621        O  0.50526498  0.82725298  0.95841175    -0.55700
O622        O  0.55541491  0.86475468  0.95881813    -0.54200
O623        O  0.53763721  0.80666560  0.90849361    -0.54200
O624        O  0.53823118  0.86926317  0.92392705    -0.53400
O625        O  0.56760894  0.30627350  0.30983050    -0.54600
C626        C  0.62086083  0.31865863  0.27585123     0.78100
O627        O  0.63629845  0.28181425  0.30541248    -0.55700
C628        C  0.56505615  0.29538548  0.32735942     0.78000
C629        C  0.58231685  0.25517181  0.25958380     0.80400
Cd630      Cd  0.59752229  0.28258790  0.29520231     1.37500
O631        O  0.60573516  0.32175924  0.28977927    -0.54600
O632        O  0.57738553  0.27527988  0.26101327    -0.53400
C633        C  0.63379440  0.27273911  0.32383883     0.80400
O634        O  0.59232865  0.24691262  0.27580678    -0.55700
O635        O  0.62401935  0.29906309  0.26968964    -0.54200
O636        O  0.57590601  0.27777368  0.32897670    -0.54200
O637        O  0.61497495  0.26499024  0.32776897    -0.53400
O638        O  0.55816904  0.31323206  0.40254528    -0.54600
C639        C  0.56694163  0.37060400  0.44183870     0.78100
O640        O  0.51548901  0.37495869  0.40064268    -0.55700
C641        C  0.54697456  0.31104425  0.38509412     0.78000
C642        C  0.50708530  0.33079112  0.45191521     0.80400
Cd643      Cd  0.53623267  0.34411824  0.41735593     1.37500
O644        O  0.57170070  0.35079067  0.43723124    -0.54600
O645        O  0.52741319  0.32689600  0.45252917    -0.53400
C646        C  0.53022042  0.37883860  0.38647195     0.80400
O647        O  0.49957077  0.33856599  0.43413283    -0.55700
O648        O  0.54843144  0.37737342  0.43559764    -0.54200
O649        O  0.52939984  0.32199373  0.38391930    -0.54200
O650        O  0.54666647  0.36621537  0.38631506    -0.53400
O651        O  0.68342414  0.41724500  0.42943427    -0.54600
C652        C  0.62948701  0.45052452  0.41925795     0.78100
O653        O  0.61527846  0.41796222  0.45864482    -0.55700
C654        C  0.68714903  0.39967571  0.44000491     0.78000
C655        C  0.66681801  0.46461576  0.48346929     0.80400
Cd656      Cd  0.65357134  0.42971157  0.45403827     1.37500
O657        O  0.64596071  0.43846151  0.41521300    -0.54600
O658        O  0.67145246  0.46483960  0.46329413    -0.53400
C659        C  0.61943006  0.39780888  0.46153057     0.80400
O660        O  0.65843343  0.44703720  0.49078309    -0.55700
O661        O  0.62487298  0.45357081  0.43920149    -0.54200
O662        O  0.67738369  0.39747705  0.45814484    -0.54200
O663        O  0.63930567  0.39288433  0.46437309    -0.53400
O664        O  0.69153762  0.32660470  0.41469186    -0.54600
C665        C  0.68519444  0.29210279  0.35342823     0.78100
O666        O  0.73719841  0.33498435  0.35730577    -0.55700
C667        C  0.70345725  0.34312703  0.41929566     0.78000
C668        C  0.74274120  0.27783412  0.39605879     0.80400
Cd669      Cd  0.71457121  0.31391164  0.38379696     1.37500
O670        O  0.67946601  0.29508121  0.37322151    -0.54600
O671        O  0.72307909  0.27882442  0.40248958    -0.53400
C672        C  0.72229573  0.34911680  0.35370095     0.80400
O673        O  0.75014750  0.29463943  0.38627421    -0.55700
O674        O  0.70412635  0.29858689  0.34827515    -0.54200
O675        O  0.72160130  0.34454629  0.40940242    -0.54200
O676        O  0.70481405  0.34732024  0.36466203    -0.53400
O677        O  0.66448531  0.44214051  0.28344345    -0.54600
C678        C  0.70379530  0.39284884  0.31445334     0.78100
O679        O  0.66703338  0.37234400  0.26096473    -0.55700
C680        C  0.64941480  0.43874783  0.26935789     0.78000
C681        C  0.72210637  0.41390678  0.24616231     0.80400
Cd682      Cd  0.68427917  0.40748477  0.27420656     1.37500
O683        O  0.69494656  0.41170417  0.31336384    -0.54600
O684        O  0.72034621  0.42356189  0.26450843    -0.53400
C685        C  0.65298664  0.37247120  0.27635988     0.80400
O686        O  0.70564073  0.40279621  0.23980254    -0.55700
O687        O  0.70477458  0.38183431  0.29683660    -0.54200
O688        O  0.65280166  0.42370651  0.25543190    -0.54200
O689        O  0.65410649  0.38805358  0.29000344    -0.53400
O690        O  0.58755177  0.45010334  0.29551852    -0.54600
C691        C  0.54896805  0.42028119  0.34455054     0.78100
O692        O  0.60150069  0.44633136  0.34659382    -0.55700
C693        C  0.60165783  0.46546697  0.29708208     0.78000
C694        C  0.53189064  0.48984081  0.32449630     0.80400
Cd695      Cd  0.56869400  0.46046008  0.33001671     1.37500
O696        O  0.55678638  0.42172976  0.32532501    -0.54600
O697        O  0.53215896  0.47087585  0.31586554    -0.53400
C698        C  0.60091297  0.45735361  0.36411076     0.80400
O699        O  0.54926015  0.49598066  0.33423735    -0.55700
O700        O  0.54911332  0.43758262  0.35613622    -0.54200
O701        O  0.59799785  0.48026627  0.31122168    -0.54200
O702        O  0.58523606  0.47095464  0.36622312    -0.53400
O703        O  0.29252985  0.32906795  0.57167260    -0.54600
C704        C  0.33911212  0.26251142  0.59764589     0.78100
O705        O  0.32033750  0.32485295  0.61690822    -0.55700
C706        C  0.31002629  0.33214337  0.56104942     0.78000
C707        C  0.27142699  0.26584861  0.58243191     0.80400
Cd708      Cd  0.30635488  0.29644374  0.59221382     1.37500
O709        O  0.33426041  0.27078364  0.57925080    -0.54600
O710        O  0.26804219  0.28254781  0.59437905    -0.53400
C711        C  0.30534666  0.32298798  0.63109273     0.80400
O712        O  0.28994799  0.26463088  0.57340600    -0.55700
O713        O  0.33092361  0.27172782  0.61437832    -0.54200
O714        O  0.32480468  0.31775279  0.56327393    -0.54200
O715        O  0.29160469  0.30756749  0.62828277    -0.53400
O716        O  0.32660187  0.39105263  0.52553365    -0.54600
C717        C  0.36386833  0.44644142  0.56541090     0.78100
O718        O  0.35960785  0.39705979  0.50788439    -0.55700
C719        C  0.31555821  0.39189617  0.54297710     0.78000
C720        C  0.32709538  0.46367757  0.50060456     0.80400
Cd721      Cd  0.34266796  0.42797818  0.52779582     1.37500
O722        O  0.34467647  0.43855386  0.56656369    -0.54600
O723        O  0.32624882  0.46427901  0.52123756    -0.53400
C724        C  0.37893659  0.40189099  0.51366803     0.80400
O725        O  0.33300879  0.44565059  0.49215758    -0.55700
O726        O  0.37306449  0.44603795  0.54683244    -0.54200
O727        O  0.31457950  0.41049507  0.55234049    -0.54200
O728        O  0.38165784  0.42020620  0.52324849    -0.53400
O729        O  0.42074041  0.44211186  0.67540576    -0.54600
C730        C  0.45237140  0.41441992  0.62530963     0.78100
O731        O  0.42817428  0.47241019  0.60455816    -0.55700
C732        C  0.40508321  0.45585584  0.67519744     0.78000
C733        C  0.47471172  0.48390656  0.65193158     0.80400
Cd734      Cd  0.43750859  0.45631472  0.64119283     1.37500
O735        O  0.44240887  0.41602197  0.64344774    -0.54600
O736        O  0.47620329  0.46321258  0.65101548    -0.53400
C737        C  0.40954038  0.46318168  0.60397356     0.80400
O738        O  0.45584348  0.49196821  0.64893658    -0.55700
O739        O  0.45646398  0.43215881  0.61532221    -0.54200
O740        O  0.40633133  0.47128227  0.66140305    -0.54200
O741        O  0.40402686  0.45240195  0.62070203    -0.53400
O742        O  0.34649170  0.42647041  0.69472466    -0.54600
C743        C  0.31502283  0.37201588  0.66912736     0.78100
O744        O  0.33759408  0.35595638  0.72415963    -0.55700
C745        C  0.36267577  0.42548207  0.70787339     0.78000
C746        C  0.29085705  0.40477590  0.73458850     0.80400
Cd747      Cd  0.32882835  0.39283751  0.70888274     1.37500
O748        O  0.32397976  0.39086595  0.66859590    -0.54600
O749        O  0.29153586  0.40756817  0.71402774    -0.53400
C750        C  0.35476775  0.35413815  0.71260214     0.80400
O751        O  0.30829501  0.39795910  0.74366740    -0.55700
O752        O  0.30997664  0.36461416  0.68779376    -0.54200
O753        O  0.36135077  0.41170956  0.72335219    -0.54200
O754        O  0.36107091  0.37110098  0.70252907    -0.53400
O755        O  0.43834006  0.27337857  0.64667701    -0.54600
C756        C  0.38874287  0.31062926  0.68429325     0.78100
O757        O  0.38977373  0.23724260  0.64345317    -0.55700
C758        C  0.43089740  0.28064597  0.62857813     0.78000
C759        C  0.40629081  0.24467238  0.70261080     0.80400
Cd760      Cd  0.40077982  0.27009809  0.66324235     1.37500
O761        O  0.40766144  0.30784089  0.67641224    -0.54600
O762        O  0.42317515  0.25056731  0.69195590    -0.53400
C763        C  0.37410719  0.24586547  0.63285355     0.80400
O764        O  0.38791285  0.24894213  0.69405806    -0.55700
O765        O  0.37512921  0.29512162  0.68162178    -0.54200
O766        O  0.41038096  0.28298974  0.62720762    -0.54200
O767        O  0.36906149  0.26544405  0.63789663    -0.53400
O768        O  0.43502214  0.31283209  0.55799760    -0.54600
C769        C  0.43166650  0.37326362  0.52787094     0.78100
O770        O  0.48404782  0.36888382  0.56845195    -0.55700
C771        C  0.44630071  0.30556815  0.57388200     0.78000
C772        C  0.48810205  0.33034806  0.51149933     0.80400
Cd773      Cd  0.46074093  0.34222159  0.54798916     1.37500
O774        O  0.42593017  0.35330988  0.53011255    -0.54600
O775        O  0.46742936  0.32997352  0.51044383    -0.53400
C776        C  0.46953415  0.37261091  0.58287534     0.80400
O777        O  0.49648413  0.33459845  0.53011449    -0.55700
O778        O  0.45071269  0.37836671  0.53423436    -0.54200
O779        O  0.46546409  0.31329687  0.57608754    -0.54200
O780        O  0.45220840  0.36120513  0.58183640    -0.53400
O781        O  0.78187887  0.83647448  0.56355298    -0.54600
C782        C  0.83422100  0.79191322  0.60668508     0.78100
O783        O  0.77583693  0.81658838  0.62217743    -0.55700
C784        C  0.79801895  0.83541387  0.55060454     0.78000
C785        C  0.76784703  0.76747604  0.57771955     0.80400
Cd786      Cd  0.79386014  0.80607402  0.58713488     1.37500
O787        O  0.83382369  0.80145956  0.58826892    -0.54600
O788        O  0.78850314  0.76744904  0.57647312    -0.53400
C789        C  0.78412051  0.83569184  0.62280570     0.80400
O790        O  0.75885564  0.78586950  0.58141840    -0.55700
O791        O  0.81595493  0.78792485  0.61553179    -0.54200
O792        O  0.81051540  0.81891464  0.55257097    -0.54200
O793        O  0.79545213  0.84134904  0.60647394    -0.53400
O794        O  0.81350279  0.91073632  0.54340709    -0.54600
C795        C  0.86537280  0.93744101  0.56123977     0.78100
O796        O  0.88296461  0.92027190  0.51748200    -0.55700
C797        C  0.81163183  0.89307141  0.53246763     0.78000
C798        C  0.83139791  0.96278777  0.49392555     0.80400
Cd799      Cd  0.84373238  0.92583830  0.52128962     1.37500
O800        O  0.84540790  0.93159868  0.56154656    -0.54600
O801        O  0.83069634  0.96361114  0.51460613    -0.53400
C802        C  0.88185617  0.89999262  0.51304724     0.80400
O803        O  0.83601714  0.94430363  0.48557156    -0.55700
O804        O  0.87396120  0.94025750  0.54262616    -0.54200
O805        O  0.82271829  0.89169842  0.51499422    -0.54200
O806        O  0.86313368  0.89246287  0.50804401    -0.53400
O807        O  0.94624266  0.80314501  0.65889250    -0.54600
C808        C  0.89209020  0.82454857  0.69507838     0.78100
O809        O  0.88193689  0.76381827  0.66445209    -0.55700
C810        C  0.94451076  0.79167542  0.64157213     0.78000
C811        C  0.92798609  0.76477320  0.71596203     0.80400
Cd812      Cd  0.91358085  0.78704335  0.67693001     1.37500
O813        O  0.91005603  0.82642258  0.68485223    -0.54600
O814        O  0.93090674  0.78506548  0.71283144    -0.53400
C815        C  0.87594845  0.77818496  0.65055373     0.80400
O816        O  0.92043522  0.75369128  0.69990596    -0.55700
O817        O  0.88489826  0.80527652  0.69809825    -0.54200
O818        O  0.93069808  0.77616578  0.64192558    -0.54200
O819        O  0.88721421  0.79558953  0.64949997    -0.53400
O820        O  0.93978466  0.81905863  0.57143502    -0.54600
C821        C  0.93357303  0.87645637  0.53874489     0.78100
O822        O  0.99553287  0.85873629  0.58095234    -0.55700
C823        C  0.95393400  0.80955515  0.58331129     0.78000
C824        C  0.99089716  0.83959441  0.51762762     0.80400
Cd825      Cd  0.96561536  0.84698125  0.55699744     1.37500
O826        O  0.93149908  0.85579659  0.53704024    -0.54600
O827        O  0.97262970  0.83025350  0.52063885    -0.53400
C828        C  0.98350459  0.86603958  0.59625329     0.80400
O829        O  0.99838367  0.85088916  0.53344167    -0.55700
O830        O  0.94998955  0.88343446  0.54946906    -0.54200
O831        O  0.97369643  0.81483746  0.58021223    -0.54200
O832        O  0.96319125  0.86761492  0.59217053    -0.53400
O833        O  0.83938403  0.92826456  0.68393434    -0.54600
C834        C  0.79735381  0.88125808  0.66316254     0.78100
O835        O  0.82720652  0.86359491  0.72035923    -0.55700
C836        C  0.85414192  0.92821914  0.69867817     0.78000
C837        C  0.78107386  0.91307355  0.72981773     0.80400
Cd838      Cd  0.81697237  0.89929313  0.70209238     1.37500
O839        O  0.80551676  0.90045384  0.66323415    -0.54600
O840        O  0.78106113  0.91655743  0.70937499    -0.53400
C841        C  0.84447952  0.86171599  0.70896620     0.80400
O842        O  0.79851527  0.90522812  0.73790931    -0.55700
O843        O  0.79690972  0.87123217  0.68133020    -0.54200
O844        O  0.84950867  0.91847491  0.71637902    -0.54200
O845        O  0.84819446  0.87671480  0.69524354    -0.53400
O846        O  0.91656527  0.92848553  0.66921634    -0.54600
C847        C  0.96631170  0.89631121  0.63554357     0.78100
O848        O  0.93245774  0.95101000  0.60130051    -0.55700
C849        C  0.90444246  0.94518627  0.66643346     0.78000
C850        C  0.97848796  0.96678983  0.64227016     0.80400
Cd851      Cd  0.94161452  0.93697661  0.63796741     1.37500
O852        O  0.95904043  0.90398075  0.65339822    -0.54600
O853        O  0.97085770  0.95746486  0.65916998    -0.53400
C854        C  0.91459427  0.94051105  0.59964778     0.80400
O855        O  0.96792676  0.96398262  0.62465198    -0.55700
O856        O  0.96005359  0.90585167  0.61824446    -0.54200
O857        O  0.91111314  0.95927200  0.65276226    -0.54200
O858        O  0.90990303  0.92742316  0.61506006    -0.53400
O859        O  0.66982325  0.55254821  0.69654471    -0.54600
C860        C  0.70893864  0.59876032  0.67519366     0.78100
O861        O  0.66837164  0.60095788  0.73844131    -0.55700
C862        C  0.65388128  0.55608713  0.70943641     0.78000
C863        C  0.73272991  0.56406527  0.73963743     0.80400
Cd864      Cd  0.69465592  0.58002121  0.71580454     1.37500
O865        O  0.69842437  0.58074428  0.67556824    -0.54600
O866        O  0.72991125  0.55978643  0.71954953    -0.53400
C867        C  0.67266214  0.61911973  0.72937554     0.80400
O868        O  0.71693375  0.57326307  0.74933043    -0.55700
O869        O  0.71354830  0.60748063  0.69352277    -0.54200
O870        O  0.65803525  0.56763104  0.72614622    -0.54200
O871        O  0.68926439  0.61965277  0.71700424    -0.53400
O872        O  0.58872425  0.55194722  0.68292177    -0.54600
C873        C  0.53185730  0.57838354  0.65088916     0.78100
O874        O  0.58537539  0.53557333  0.61827854    -0.55700
C875        C  0.60256638  0.53704558  0.67836542     0.78000
C876        C  0.53198975  0.50909287  0.64900153     0.80400
Cd877      Cd  0.56424004  0.54379997  0.65073852     1.37500
O878        O  0.54083389  0.57157688  0.66844152    -0.54600
O879        O  0.53514269  0.52045172  0.66615613    -0.53400
C880        C  0.59258841  0.55502136  0.61613778     0.80400
O881        O  0.54500919  0.51232959  0.63320505    -0.55700
O882        O  0.53922557  0.57062666  0.63309326    -0.54200
O883        O  0.59704144  0.52362914  0.66350065    -0.54200
O884        O  0.58487620  0.56968424  0.62867882    -0.53400
O885        O  0.59825170  0.66655457  0.67402725    -0.54600
C886        C  0.64497008  0.67132828  0.71169232     0.78100
O887        O  0.62163647  0.71255490  0.65298482    -0.55700
C888        C  0.58532263  0.67655731  0.66121114     0.78000
C889        C  0.59701611  0.72681046  0.72554738     0.80400
Cd890      Cd  0.61395567  0.69975016  0.69068678     1.37500
O891        O  0.62467927  0.66668532  0.71204949    -0.54600
O892        O  0.59427397  0.70622944  0.72527056    -0.53400
C893        C  0.64207986  0.71394648  0.65603858     0.80400
O894        O  0.60562871  0.73526798  0.70868893    -0.55700
O895        O  0.65040960  0.68898926  0.70232418    -0.54200
O896        O  0.58354006  0.69714614  0.66390721    -0.54200
O897        O  0.64871491  0.71292309  0.67572774    -0.53400
O898        O  0.56327024  0.62076816  0.55258177    -0.54600
C899        C  0.55558645  0.66179175  0.60771202     0.78100
O900        O  0.49970266  0.64107837  0.55741114    -0.55700
C901        C  0.55863652  0.60046358  0.55249333     0.78000
C902        C  0.51276930  0.61071603  0.61428374     0.80400
Cd903      Cd  0.53393422  0.63194088  0.57778395     1.37500
O904        O  0.56296267  0.64293730  0.60319276    -0.54600
O905        O  0.53280187  0.60775940  0.61014726    -0.53400
C906        C  0.50927784  0.65015047  0.54133668     0.80400
O907        O  0.50189352  0.62162166  0.60023918    -0.55700
O908        O  0.53970096  0.66845956  0.59612442    -0.54200
O909        O  0.54245191  0.59458456  0.56401219    -0.54200
O910        O  0.52982341  0.65257239  0.54303775    -0.53400
O911        O  0.70193113  0.65514354  0.56882151    -0.54600
C912        C  0.69325218  0.69857730  0.62539309     0.78100
O913        O  0.74317535  0.65473031  0.62970378    -0.55700
C914        C  0.71517212  0.63916296  0.56665733     0.78000
C915        C  0.75074179  0.70748809  0.58430733     0.80400
Cd916      Cd  0.72271882  0.67271263  0.59934594     1.37500
O917        O  0.68684317  0.69111455  0.60691978    -0.54600
O918        O  0.73064824  0.70654286  0.57915852    -0.53400
C919        C  0.72730942  0.64202134  0.63440857     0.80400
O920        O  0.75855193  0.69115411  0.59460130    -0.55700
O921        O  0.71281081  0.69460372  0.63086469    -0.54200
O922        O  0.73283028  0.64025821  0.57753099    -0.54200
O923        O  0.71021294  0.64346470  0.62269980    -0.53400
O924        O  0.68466686  0.57932813  0.54452686    -0.54600
C925        C  0.63603685  0.55014663  0.57239524     0.78100
O926        O  0.62379542  0.58601147  0.51288569    -0.55700
C927        C  0.68095731  0.59738894  0.53481048     0.78000
C928        C  0.66396443  0.52437010  0.50234609     0.80400
Cd929      Cd  0.65082897  0.56100044  0.52980286     1.37500
O930        O  0.63983147  0.56978258  0.56680466    -0.54600
O931        O  0.66768169  0.52468231  0.52275208    -0.53400
C932        C  0.60750767  0.57769270  0.52262196     0.80400
O933        O  0.65555765  0.54157678  0.49424477    -0.55700
O934        O  0.64249244  0.53512914  0.55958429    -0.54200
O935        O  0.66544887  0.59740303  0.52107523    -0.54200
O936        O  0.61051822  0.55930779  0.53173404    -0.53400
O937        O  0.42302598  0.93321980  0.19058062    -0.54600
C938        C  0.46239379  0.91154771  0.13438231     0.78100
O939        O  0.42077189  0.96277449  0.12473633    -0.55700
C940        C  0.40866555  0.94837864  0.19061187     0.78000
C941        C  0.47709696  0.97700242  0.16190090     0.80400
Cd942      Cd  0.44089449  0.94720468  0.15646819     1.37500
O943        O  0.45560599  0.90897801  0.15394339    -0.54600
O944        O  0.47714196  0.95814559  0.17073096    -0.53400
C945        C  0.40743539  0.94668802  0.12398523     0.80400
O946        O  0.45945217  0.98298796  0.15267363    -0.55700
O947        O  0.46025910  0.93045178  0.12612494    -0.54200
O948        O  0.41179499  0.96429430  0.17769377    -0.54200
O949        O  0.40978524  0.93168695  0.13805108    -0.53400
O950        O  0.34611089  0.92410871  0.20240765    -0.54600
C951        C  0.30637706  0.87827995  0.17114135     0.78100
O952        O  0.33034627  0.85527086  0.22872617    -0.55700
C953        C  0.36049851  0.92055401  0.21708426     0.78000
C954        C  0.28436159  0.90611333  0.23610871     0.80400
Cd955      Cd  0.32298827  0.89232968  0.21273839     1.37500
O956        O  0.31772858  0.89571380  0.17281369    -0.54600
O957        O  0.28754953  0.91102605  0.21623617    -0.53400
C958        C  0.34679950  0.85213355  0.21640100     0.80400
O959        O  0.29984410  0.89629995  0.24594759    -0.55700
O960        O  0.30172367  0.86836146  0.18874917    -0.54200
O961        O  0.35569343  0.90658346  0.23163122    -0.54200
O962        O  0.35187569  0.86749879  0.20349768    -0.53400
O963        O  0.44055479  0.78714480  0.17199890    -0.54600
C964        C  0.38871297  0.80918985  0.19984030     0.78100
O965        O  0.39366511  0.76991398  0.14646835    -0.55700
C966        C  0.44441121  0.77325430  0.15692480     0.78000
C967        C  0.41470061  0.74140817  0.22271242     0.80400
Cd968      Cd  0.40677693  0.76884635  0.18441411     1.37500
O969        O  0.40813897  0.80836812  0.19258693    -0.54600
O970        O  0.41488502  0.76213482  0.22349671    -0.53400
C971        C  0.37391679  0.76529835  0.15017205     0.80400
O972        O  0.41159756  0.73285555  0.20394273    -0.55700
O973        O  0.37814974  0.79129725  0.20066401    -0.54200
O974        O  0.43307512  0.75576468  0.15693432    -0.54200
O975        O  0.36932841  0.75952822  0.16961995    -0.53400
O976        O  0.44712269  0.78931483  0.08350714    -0.54600
C977        C  0.42715364  0.84348067  0.04905985     0.78100
O978        O  0.47899554  0.85760440  0.08982019    -0.55700
C979        C  0.46016670  0.78695732  0.09957533     0.78000
C980        C  0.49391957  0.81612724  0.03531131     0.80400
Cd981      Cd  0.46397158  0.82395815  0.07102868     1.37500
O982        O  0.42543988  0.82517817  0.05878763    -0.54600
O983        O  0.47420929  0.80968461  0.03475031    -0.53400
C984        C  0.46588089  0.85622762  0.10591052     0.80400
O985        O  0.50057940  0.82446452  0.05323833    -0.55700
O986        O  0.44594596  0.85227808  0.04884339    -0.54200
O987        O  0.47687716  0.79933069  0.10006810    -0.54200
O988        O  0.45280585  0.84016361  0.10578797    -0.53400
O989        O  0.32650841  0.78840978  0.10255481    -0.54600
C990        C  0.30128754  0.83588648  0.05915699     0.78100
O991        O  0.25340326  0.78953169  0.08980464    -0.55700
C992        C  0.32087489  0.78202645  0.12155962     0.78000
C993        C  0.28594262  0.83794137  0.12828998     0.80400
Cd994      Cd  0.29044659  0.80594626  0.09418853     1.37500
O995        O  0.31248846  0.81871685  0.06276438    -0.54600
O996        O  0.30241091  0.83716894  0.11578211    -0.53400
C997        C  0.26005302  0.77175904  0.08119374     0.80400
O998        O  0.27039129  0.82460813  0.12424159    -0.55700
O999        O  0.28368511  0.83790496  0.06991633    -0.54200
O1000       O  0.30134987  0.78584433  0.12712014    -0.54200
O1001       O  0.28022175  0.77081215  0.07652678    -0.53400
O1002       O  0.32262332  0.90977422  0.05211087    -0.54600
C1003       C  0.37968523  0.94266775  0.06886731     0.78100
O1004       O  0.38954945  0.90488386  0.01478563    -0.55700
C1005       C  0.32032306  0.89218019  0.04111953     0.78000
C1006       C  0.34570534  0.95710717  0.00523443     0.80400
Cd1007     Cd  0.35692289  0.92121657  0.03367186     1.37500
O1008       O  0.36187366  0.93239838  0.07210750    -0.54600
O1009       O  0.34333034  0.95816250  0.02579201    -0.53400
C1010       C  0.39094229  0.88913275  0.02834244     0.80400
O1011       O  0.35177709  0.93875822  0.99739793    -0.55700
O1012       O  0.38640474  0.94369671  0.04933492    -0.54200
O1013       O  0.33307791  0.88958171  0.02499219    -0.54200
O1014       O  0.37644215  0.88820123  0.04302379    -0.53400
O1015       O  0.43034343  0.69578454  0.34645666    -0.54600
C1016       C  0.40347728  0.65540673  0.27696292     0.78100
O1017       O  0.37901666  0.66508556  0.32936802    -0.55700
C1018       C  0.43996767  0.67744192  0.34818772     0.78000
C1019       C  0.41330365  0.72098067  0.28205535     0.80400
Cd1020     Cd  0.40883078  0.68545764  0.31283082     1.37500
O1021       O  0.42172805  0.65806588  0.28659380    -0.54600
O1022       O  0.42859459  0.70737278  0.28534837    -0.53400
C1023       C  0.37159388  0.68126607  0.34009113     0.80400
O1024       O  0.39736946  0.72040464  0.29527805    -0.55700
O1025       O  0.38709011  0.66504930  0.28527345    -0.54200
O1026       O  0.43704294  0.66398819  0.33256973    -0.54200
O1027       O  0.38055109  0.69983936  0.33708300    -0.53400
O1028       O  0.47269666  0.65477081  0.40753876    -0.54600
C1029       C  0.42668047  0.61972129  0.46021488     0.78100
O1030       O  0.47223646  0.59994064  0.43965118    -0.55700
C1031       C  0.45724587  0.66858986  0.40799505     0.78000
C1032       C  0.49442489  0.65410946  0.48079613     0.80400
Cd1033     Cd  0.46671465  0.63968402  0.44465046     1.37500
O1034       O  0.42627248  0.63599275  0.44727196    -0.54600
O1035       O  0.47485470  0.66061257  0.47887811    -0.53400
C1036       C  0.47775010  0.60157473  0.41975482     0.80400
O1037       O  0.50215030  0.64357225  0.46467166    -0.55700
O1038       O  0.44528502  0.61382915  0.46705219    -0.54200
O1039       O  0.44779455  0.67118422  0.42634608    -0.54200
O1040       O  0.48161467  0.62068638  0.41263803    -0.53400
O1041       O  0.34749097  0.57574649  0.28611789    -0.54600
C1042       C  0.30470066  0.64067850  0.30932419     0.78100
O1043       O  0.34811707  0.61945764  0.24826181    -0.55700
C1044       C  0.35072864  0.57878428  0.30643619     0.78000
C1045       C  0.28899518  0.59690470  0.25579567     0.80400
Cd1046     Cd  0.32664534  0.61005835  0.28127545     1.37500
O1047       O  0.30138479  0.62015199  0.31073877    -0.54600
O1048       O  0.29425928  0.61677217  0.25900918    -0.53400
C1049       C  0.36420315  0.62774151  0.25854278     0.80400
O1050       O  0.30218843  0.58250696  0.26291800    -0.55700
O1051       O  0.31842479  0.64702176  0.29512241    -0.54200
O1052       O  0.34012202  0.59414561  0.31548673    -0.54200
O1053       O  0.36231827  0.62908776  0.27910656    -0.53400
O1054       O  0.40964362  0.55907605  0.33783064    -0.54600
C1055       C  0.46025948  0.56708004  0.37168793     0.78100
O1056       O  0.42849332  0.52007527  0.38703260    -0.55700
C1057       C  0.40300141  0.54835338  0.32125692     0.78000
C1058       C  0.47224463  0.50743741  0.33025779     0.80400
Cd1059     Cd  0.43707383  0.53268825  0.34950742     1.37500
O1060       O  0.45201184  0.57026023  0.35284435    -0.54600
O1061       O  0.47146072  0.52814764  0.32876494    -0.53400
C1062       C  0.40814750  0.51787835  0.38369772     0.80400
O1063       O  0.45582155  0.49808576  0.33890033    -0.55700
O1064       O  0.45800148  0.54810101  0.37981448    -0.54200
O1065       O  0.41369982  0.53126229  0.31613000    -0.54200
O1066       O  0.40183328  0.51866100  0.36396180    -0.53400
O1067       O  0.30312424  0.66555921  0.43381519    -0.54600
C1068       C  0.32805109  0.69024388  0.38338287     0.78100
O1069       O  0.28307484  0.68279039  0.36092191    -0.55700
C1070       C  0.29076101  0.64878777  0.43392694     0.78000
C1071       C  0.26231220  0.72126785  0.41315885     0.80400
Cd1072     Cd  0.28591717  0.68215809  0.40105062     1.37500
O1073       O  0.32111898  0.67104560  0.38725733    -0.54600
O1074       O  0.28293427  0.72008824  0.41446343    -0.53400
C1075       C  0.27607601  0.66329066  0.35921795     0.80400
O1076       O  0.25221712  0.70369415  0.40820421    -0.55700
O1077       O  0.31679043  0.70609903  0.39059273    -0.54200
O1078       O  0.27466532  0.64893358  0.42081785    -0.54200
O1079       O  0.26902609  0.65442173  0.37654658    -0.53400
O1080       O  0.30492002  0.57331026  0.43368528    -0.54600
C1081       C  0.35917615  0.53354575  0.41784800     0.78100
O1082       O  0.35934242  0.58782426  0.43756909    -0.55700
C1083       C  0.30340519  0.58967785  0.44652712     0.78000
C1084       C  0.32639119  0.52318112  0.48172740     0.80400
Cd1085     Cd  0.33767075  0.55801296  0.45203240     1.37500
O1086       O  0.36777009  0.53657220  0.43655714    -0.54600
O1087       O  0.32078137  0.52288492  0.46174730    -0.53400
C1088       C  0.37182779  0.59050647  0.45391694     0.80400
O1089       O  0.33556008  0.54058843  0.48871801    -0.55700
O1090       O  0.33995309  0.54099957  0.41507269    -0.54200
O1091       O  0.31547164  0.58952554  0.46343908    -0.54200
O1092       O  0.36877975  0.57791430  0.47027017    -0.53400
O1093       O  0.16877001  0.58734644  0.17463814    -0.54600
C1094       C  0.23040808  0.61074822  0.16371484     0.78100
O1095       O  0.16701912  0.61017004  0.22062895    -0.55700
C1096       C  0.16612841  0.56930311  0.18463115     0.78000
C1097       C  0.23167884  0.60227235  0.23085588     0.80400
Cd1098     Cd  0.19861892  0.60134756  0.19739037     1.37500
O1099       O  0.22795101  0.59207607  0.17245111    -0.54600
O1100       O  0.22702875  0.58435211  0.22118041    -0.53400
C1101       C  0.16462324  0.62919569  0.21262355     0.80400
O1102       O  0.21912330  0.61838135  0.22730331    -0.55700
O1103       O  0.21590796  0.62503264  0.16797739    -0.54200
O1104       O  0.18048494  0.56439285  0.19893261    -0.54200
O1105       O  0.17907468  0.63585575  0.19919971    -0.53400
O1106       O  0.09234981  0.56180857  0.15754190    -0.54600
C1107       C  0.05145825  0.55669543  0.11439723     0.78100
O1108       O  0.08052808  0.50955859  0.11048248    -0.55700
C1109       C  0.10778780  0.55221702  0.16756419     0.78000
C1110       C  0.03875762  0.50366730  0.16682523     0.80400
Cd1111     Cd  0.07313832  0.52835509  0.14530713     1.37500
O1112       O  0.05190239  0.56168940  0.13462321    -0.54600
O1113       O  0.03910874  0.52443168  0.16685388    -0.53400
C1114       C  0.10098915  0.50829450  0.11363322     0.80400
O1115       O  0.05565082  0.49419688  0.15947475    -0.55700
O1116       O  0.06051774  0.53887465  0.10895405    -0.54200
O1117       O  0.10578422  0.53163868  0.17009540    -0.54200
O1118       O  0.10792832  0.51277239  0.13271437    -0.53400
O1119       O  0.06641806  0.67614630  0.07219306    -0.54600
C1120       C  0.08616651  0.62028686  0.04639918     0.78100
O1121       O  0.02839939  0.62765146  0.09023487    -0.55700
C1122       C  0.05642444  0.67598798  0.09043279     0.78000
C1123       C  0.02061925  0.65712760  0.01931863     0.80400
Cd1124     Cd  0.04625238  0.64326766  0.05735904     1.37500
O1125       O  0.08647555  0.63881049  0.05599115    -0.54600
O1126       O  0.01147255  0.65331554  0.03751494    -0.53400
C1127       C  0.03270591  0.60798844  0.08515279     0.80400
O1128       O  0.04125393  0.65596582  0.01918728    -0.55700
O1129       O  0.06756770  0.61300975  0.04067726    -0.54200
O1130       O  0.04075990  0.66250463  0.09214489    -0.54200
O1131       O  0.03942650  0.60462313  0.06582126    -0.53400
O1132       O  0.07182346  0.68167612  0.16682728    -0.54600
C1133       C  0.12831707  0.67794027  0.20787398     0.78100
O1134       O  0.13147481  0.72639030  0.16706937    -0.55700
C1135       C  0.06985949  0.69293558  0.14940479     0.78000
C1136       C  0.08353443  0.73411155  0.21744924     0.80400
Cd1137     Cd  0.10002931  0.70568649  0.18349034     1.37500
O1138       O  0.11019991  0.67019683  0.20083612    -0.54600
O1139       O  0.08128978  0.71341546  0.21835350    -0.53400
C1140       C  0.13661792  0.71020760  0.15486972     0.80400
O1141       O  0.09090769  0.74192819  0.19963770    -0.55700
O1142       O  0.13160590  0.69828107  0.20553102    -0.54200
O1143       O  0.07943461  0.71144427  0.14909596    -0.54200
O1144       O  0.12431749  0.69349396  0.15553944    -0.53400
O1145       O  0.22509618  0.63737155  0.07639255    -0.54600
C1146       C  0.17876372  0.68828772  0.11477149     0.78100
O1147       O  0.25054101  0.66348402  0.11642759    -0.55700
C1148       C  0.20970322  0.63856988  0.06259276     0.78000
C1149       C  0.24045234  0.71218534  0.07845390     0.80400
Cd1150     Cd  0.21832052  0.67287121  0.09474905     1.37500
O1151       O  0.19727134  0.69269819  0.12319485    -0.54600
O1152       O  0.24824206  0.69322062  0.07506725    -0.53400
C1153       C  0.24209198  0.64814736  0.12756789     0.80400
O1154       O  0.22210909  0.71281316  0.08788723    -0.55700
O1155       O  0.17868297  0.67676375  0.09745552    -0.54200
O1156       O  0.19937246  0.65660118  0.06201534    -0.54200
O1157       O  0.22160962  0.64555990  0.12566503    -0.53400
O1158       O  0.19627387  0.56211066  0.05867621    -0.54600
C1159       C  0.14694638  0.52238666  0.07641684     0.78100
O1160       O  0.12975994  0.55785253  0.02059810    -0.55700
C1161       C  0.19676278  0.57940647  0.04714097     0.78000
C1162       C  0.17834623  0.51132186  0.00919405     0.80400
Cd1163     Cd  0.16441024  0.54559621  0.03943325     1.37500
O1164       O  0.16552383  0.53167865  0.07751333    -0.54600
O1165       O  0.17902422  0.50889214  0.02974876    -0.53400
C1166       C  0.12657397  0.57378504  0.03369010     0.80400
O1167       O  0.17260241  0.53011934  0.00238177    -0.55700
O1168       O  0.13709422  0.52316215  0.05813009    -0.54200
O1169       O  0.18448913  0.57968398  0.03038126    -0.54200
O1170       O  0.14063772  0.57638037  0.04871584    -0.53400
O1171       O  0.09948672  0.44113588  0.80717480    -0.54600
C1172       C  0.05926671  0.41612610  0.85624147     0.78100
O1173       O  0.09333069  0.47106314  0.87599259    -0.55700
C1174       C  0.11496301  0.45508195  0.80846852     0.78000
C1175       C  0.04429876  0.48285432  0.82905332     0.80400
Cd1176     Cd  0.08052209  0.45497072  0.84032435     1.37500
O1177       O  0.06998776  0.41579153  0.83846496    -0.54600
O1178       O  0.04565928  0.46326170  0.82218743    -0.53400
C1179       C  0.10919712  0.45768468  0.87762552     0.80400
O1180       O  0.06074006  0.49045430  0.83935905    -0.55700
O1181       O  0.05749985  0.43451092  0.86582311    -0.54200
O1182       O  0.11261796  0.47058099  0.82211847    -0.54200
O1183       O  0.11136582  0.44383705  0.86232313    -0.53400
O1184       O  0.17469865  0.42563678  0.79284324    -0.54600
C1185       C  0.21423268  0.37615436  0.81788817     0.78100
O1186       O  0.18280777  0.35641034  0.76281702    -0.55700
C1187       C  0.15963070  0.42511946  0.77842619     0.78000
C1188       C  0.23044525  0.40455917  0.75084500     0.80400
Cd1189     Cd  0.19399393  0.39284640  0.77853857     1.37500
O1190       O  0.20305761  0.39371088  0.81819654    -0.54600
O1191       O  0.22913047  0.41123655  0.77047898    -0.53400
C1192       C  0.16605105  0.35487533  0.77499235     0.80400
O1193       O  0.21397198  0.39428826  0.74326661    -0.55700
O1194       O  0.21704689  0.36722356  0.79936062    -0.54200
O1195       O  0.16228889  0.41199895  0.76252207    -0.54200
O1196       O  0.16219440  0.37097262  0.78749371    -0.53400
O1197       O  0.07437943  0.28998843  0.83639144    -0.54600
C1198       C  0.12319361  0.31438394  0.79509153     0.78100
O1199       O  0.14086270  0.25655175  0.82497680    -0.55700
C1200       C  0.07697019  0.27697044  0.85244328     0.78000
C1201       C  0.09238666  0.24833139  0.77890672     0.80400
Cd1202     Cd  0.10607196  0.27542406  0.81532205     1.37500
O1203       O  0.10507471  0.31466923  0.80521327    -0.54600
O1204       O  0.08728073  0.26843419  0.78025083    -0.53400
C1205       C  0.14536654  0.27028831  0.84005438     0.80400
O1206       O  0.10209031  0.24009013  0.79534034    -0.55700
O1207       O  0.13264661  0.29597711  0.79336834    -0.54200
O1208       O  0.09046789  0.26147672  0.84975222    -0.54200
O1209       O  0.13160458  0.28537254  0.84353605    -0.53400
O1210       O  0.06296766  0.30988658  0.91209895    -0.54600
C1211       C  0.08247053  0.36438687  0.94960390     0.78100
O1212       O  0.02695223  0.37557985  0.91626010    -0.55700
C1213       C  0.04784515  0.30785917  0.89783540     0.78000
C1214       C  0.01831874  0.33195182  0.96795871     0.80400
Cd1215     Cd  0.04553851  0.34206514  0.93056836     1.37500
O1216       O  0.08409898  0.34453636  0.94322158    -0.54600
O1217       O  0.03879713  0.32882966  0.96843378    -0.53400
C1218       C  0.03945426  0.37696416  0.89971926     0.80400
O1219       O  0.01022033  0.33809147  0.94982299    -0.55700
O1220       O  0.06382758  0.37323093  0.94794580    -0.54200
O1221       O  0.03069318  0.31905695  0.90090564    -0.54200
O1222       O  0.05346546  0.36190446  0.89733609    -0.53400
O1223       O  0.21727138  0.31638881  0.93010067    -0.54600
C1224       C  0.19007160  0.28756906  0.87954859     0.78100
O1225       O  0.24725108  0.31610515  0.85899272    -0.55700
C1226       C  0.22926591  0.33338933  0.93096501     0.78000
C1227       C  0.25750208  0.26410573  0.90296484     0.80400
Cd1228     Cd  0.23139659  0.30327799  0.89473901     1.37500
O1229       O  0.19204963  0.29642071  0.89827163    -0.54600
O1230       O  0.23684342  0.26412734  0.90408360    -0.53400
C1231       C  0.23516050  0.33303428  0.85799403     0.80400
O1232       O  0.26652905  0.28250278  0.89911293    -0.55700
O1233       O  0.20734140  0.28512387  0.86839272    -0.54200
O1234       O  0.24453925  0.33469483  0.91700647    -0.54200
O1235       O  0.22288672  0.33651270  0.87423794    -0.53400
O1236       O  0.20977355  0.40735062  0.93485248    -0.54600
C1237       C  0.15521918  0.43924883  0.91517553     0.78100
O1238       O  0.13966891  0.40432034  0.96669572    -0.55700
C1239       C  0.21230414  0.39036498  0.94661583     0.78000
C1240       C  0.18285837  0.45337554  0.98464243     0.80400
Cd1241     Cd  0.17518257  0.41888944  0.95265153     1.37500
O1242       O  0.17412542  0.43077816  0.91388092    -0.54600
O1243       O  0.18636776  0.45613155  0.96440256    -0.53400
C1244       C  0.14032594  0.38691046  0.95521802     0.80400
O1245       O  0.17766275  0.43408880  0.99052180    -0.55700
O1246       O  0.14637861  0.43944556  0.93387925    -0.54200
O1247       O  0.19961048  0.38836860  0.96288748    -0.54200
O1248       O  0.15739690  0.38386969  0.94404877    -0.53400
C1249       C  0.22375759  0.35168800  0.94591755    -0.13200
C1250       C  0.22757588  0.37270325  0.94002094    -0.28400
H1251       H  0.21174168  0.34826294  0.95858330     0.15800
H1252       H  0.23837012  0.37607513  0.92628282     0.16400
C1253       C  0.12195897  0.37124316  0.95355127    -0.13200
C1254       C  0.10129651  0.37739303  0.95758204    -0.28400
H1255       H  0.12507305  0.35552122  0.94566345     0.15800
H1256       H  0.09806985  0.39369663  0.96414177     0.16400
C1257       C  0.06713188  0.28107944  0.87422569    -0.13200
C1258       C  0.05084768  0.29553755  0.87709356    -0.28400
H1259       H  0.07583682  0.27477060  0.88845391     0.15800
H1260       H  0.04158936  0.30115950  0.86292103     0.16400
C1261       C  0.16610667  0.26982590  0.85228112    -0.13200
C1262       C  0.16848277  0.28184791  0.87065003    -0.28400
H1263       H  0.18002012  0.26135594  0.84509439     0.15800
H1264       H  0.15430379  0.28950187  0.87824620     0.16400
C1265       C  0.22206076  0.36579583  0.83832043    -0.13200
C1266       C  0.23401051  0.34716376  0.83833611    -0.28400
H1267       H  0.21566368  0.37224123  0.85366426     0.15800
H1268       H  0.24084457  0.34088119  0.82312350     0.16400
C1269       C  0.15240617  0.33486890  0.77593947    -0.13200
C1270       C  0.13347647  0.33479676  0.78723473    -0.28400
H1271       H  0.15912154  0.31962463  0.76951156     0.15800
H1272       H  0.12658187  0.35020580  0.79307010     0.16400
C1273       C  0.05100841  0.39577611  0.86626212    -0.13200
C1274       C  0.03925057  0.39602056  0.88489556    -0.28400
H1275       H  0.05746518  0.38033793  0.86000426     0.15800
H1276       H  0.03216906  0.41127040  0.89089847     0.16400
C1277       C  0.13604336  0.45205094  0.79704321    -0.13200
C1278       C  0.13865117  0.43685645  0.78130777    -0.28400
H1279       H  0.15040981  0.45950315  0.80459997     0.15800
H1280       H  0.12431857  0.42993109  0.77320845     0.16400
C1281       C  0.14339337  0.44680886  0.89555535    -0.13200
C1282       C  0.12395901  0.45717185  0.89676858    -0.28400
H1283       H  0.14961968  0.44148014  0.87971885     0.15800
H1284       H  0.11797159  0.46339253  0.91236266     0.16400
C1285       C  0.18295400  0.49300477  0.99385548    -0.13200
C1286       C  0.18351597  0.47185941  0.00048618    -0.28400
H1287       H  0.18351099  0.49677744  0.97644618     0.15800
H1288       H  0.18183772  0.46800214  0.01780439     0.16400
C1289       C  0.20952066  0.59886074  0.05422340    -0.13200
C1290       C  0.20297646  0.61941735  0.04912205    -0.28400
H1291       H  0.22169258  0.59646636  0.06704937     0.15800
H1292       H  0.18977456  0.62177813  0.03735309     0.16400
C1293       C  0.15653544  0.70971847  0.14129514    -0.13200
C1294       C  0.15803565  0.69482317  0.12502302    -0.28400
H1295       H  0.17052726  0.71979205  0.14596029     0.15800
H1296       H  0.14351800  0.68573373  0.11991239     0.16400
C1297       C  0.10643298  0.60741700  0.04341102    -0.13200
C1298       C  0.10715315  0.58825302  0.03225293    -0.28400
H1299       H  0.12097465  0.61322755  0.05202187     0.15800
H1300       H  0.09298412  0.58261626  0.02294502     0.16400
C1301       C  0.06356174  0.68965186  0.10932424    -0.13200
C1302       C  0.05812647  0.68403088  0.13004777    -0.28400
H1303       H  0.07571831  0.70241724  0.10651488     0.15800
H1304       H  0.04728143  0.67010594  0.13275681     0.16400
C1305       C  0.04238275  0.57116879  0.09736240    -0.13200
C1306       C  0.03270875  0.59045105  0.10179139    -0.28400
H1307       H  0.04641630  0.56698884  0.08049444     0.15800
H1308       H  0.02876940  0.59482028  0.11862649     0.16400
C1309       C  0.11592884  0.50498061  0.09507051    -0.13200
C1310       C  0.13647354  0.51297311  0.09600795    -0.28400
H1311       H  0.10844531  0.50157201  0.07920510     0.15800
H1312       H  0.14390419  0.51683292  0.11179763     0.16400
C1313       C  0.25102232  0.61543496  0.15192575    -0.13200
C1314       C  0.25653931  0.63302734  0.13975075    -0.28400
H1315       H  0.26435806  0.60429197  0.15591795     0.15800
H1316       H  0.27381707  0.63453172  0.13571813     0.16400
C1317       C  0.14663666  0.55533750  0.18035250    -0.13200
C1318       C  0.12745993  0.56469850  0.17451555    -0.28400
H1319       H  0.14780015  0.53765326  0.18253993     0.15800
H1320       H  0.12662961  0.58249333  0.17299988     0.16400
C1321       C  0.14500282  0.64237216  0.21705089    -0.13200
C1322       C  0.14632299  0.66423241  0.21593789    -0.28400
H1323       H  0.12918318  0.63413167  0.21711314     0.15800
H1324       H  0.16238615  0.67200932  0.21666743     0.16400
C1325       C  0.29621962  0.62929472  0.44719415    -0.13200
C1326       C  0.29004954  0.60898876  0.44066492    -0.28400
H1327       H  0.30912414  0.63114440  0.45940748     0.15800
H1328       H  0.27844460  0.60712787  0.42721211     0.16400
C1329       C  0.39263224  0.51726560  0.40220410    -0.13200
C1330       C  0.37161260  0.52353103  0.39961342    -0.28400
H1331       H  0.39964388  0.51651163  0.41860246     0.15800
H1332       H  0.36465086  0.52484209  0.38322845     0.16400
C1333       C  0.26828840  0.59105908  0.24460309    -0.13200
C1334       C  0.25142640  0.60527479  0.24449747    -0.28400
H1335       H  0.26690201  0.57522436  0.23640504     0.15800
H1336       H  0.25306663  0.62091204  0.25306910     0.16400
C1337       C  0.29415973  0.65650588  0.32422789    -0.13200
C1338       C  0.27900923  0.65035664  0.33898871    -0.28400
H1339       H  0.30108671  0.67298488  0.32487294     0.15800
H1340       H  0.27245895  0.63372008  0.33860431     0.16400
C1341       C  0.36750344  0.56671356  0.31882759    -0.13200
C1342       C  0.38355449  0.55541852  0.30882120    -0.28400
H1343       H  0.36849735  0.56976211  0.33639649     0.15800
H1344       H  0.38269364  0.55187886  0.29135872     0.16400
C1345       C  0.40689406  0.60705770  0.46601781    -0.13200
C1346       C  0.38927228  0.60724711  0.45286882    -0.28400
H1347       H  0.40804983  0.59503892  0.47912226     0.15800
H1348       H  0.38888614  0.61838556  0.43895434     0.16400
C1349       C  0.47687563  0.58241385  0.40512287    -0.13200
C1350       C  0.47074781  0.58502876  0.38407492    -0.28400
H1351       H  0.47625773  0.56623180  0.41261733     0.15800
H1352       H  0.47026885  0.60136984  0.37690170     0.16400
C1353       C  0.40231262  0.64349340  0.25584801    -0.13200
C1354       C  0.38449138  0.63385376  0.24690659    -0.28400
H1355       H  0.41705882  0.64398288  0.24592151     0.15800
H1356       H  0.38592538  0.62796223  0.23012777     0.16400
C1357       C  0.45300520  0.67112646  0.36775514    -0.13200
C1358       C  0.44946833  0.67985962  0.38783444    -0.28400
H1359       H  0.46321190  0.65657676  0.36626625     0.15800
H1360       H  0.43793331  0.69331365  0.38966080     0.16400
C1361       C  0.34732930  0.69387168  0.36964200    -0.13200
C1362       C  0.35354937  0.67818438  0.35547693    -0.28400
H1363       H  0.35514866  0.70994681  0.36966239     0.15800
H1364       H  0.34520115  0.66236200  0.35518508     0.16400
C1365       C  0.24530311  0.75256333  0.07862610    -0.13200
C1366       C  0.25288249  0.73244335  0.07323498    -0.28400
H1367       H  0.22858957  0.75434565  0.08446371     0.15800
H1368       H  0.26965992  0.73056205  0.06762158     0.16400
C1369       C  0.30960886  0.85336395  0.04453740    -0.13200
C1370       C  0.30500390  0.87474085  0.04825205    -0.28400
H1371       H  0.32313656  0.84910658  0.03378906     0.15800
H1372       H  0.29276647  0.87908871  0.06041936     0.16400
C1373       C  0.40779132  0.85478584  0.04020879    -0.13200
C1374       C  0.40929316  0.87344423  0.02848343    -0.28400
H1375       H  0.39190389  0.84928403  0.04608987     0.15800
H1376       H  0.42490499  0.87867129  0.02172224     0.16400
C1377       C  0.41767039  0.72793306  0.24268070    -0.13200
C1378       C  0.41329268  0.73580107  0.26293028    -0.28400
H1379       H  0.42190968  0.71070053  0.24061142     0.15800
H1380       H  0.40687670  0.75233210  0.26492390     0.16400
C1381       C  0.45449742  0.77247215  0.11809988    -0.13200
C1382       C  0.45945116  0.77866520  0.13881402    -0.28400
H1383       H  0.44159615  0.76041297  0.11533648     0.15800
H1384       H  0.47078032  0.79223849  0.14149623     0.16400
C1385       C  0.35738154  0.76847918  0.13271986    -0.13200
C1386       C  0.33618566  0.77176764  0.13733933    -0.28400
H1387       H  0.36330586  0.77179519  0.11626518     0.15800
H1388       H  0.33037157  0.76918238  0.15396676     0.16400
C1389       C  0.30042690  0.86898155  0.14963713    -0.13200
C1390       C  0.28587218  0.85245963  0.14763792    -0.28400
H1391       H  0.31006245  0.87408417  0.13556790     0.15800
H1392       H  0.27558195  0.84788829  0.16141605     0.16400
C1393       C  0.35906543  0.83135305  0.21600336    -0.13200
C1394       C  0.37852039  0.83019933  0.20574565    -0.28400
H1395       H  0.35139035  0.81665767  0.22260007     0.15800
H1396       H  0.38647636  0.84510608  0.19996666     0.16400
C1397       C  0.46452756  0.87272600  0.12364920    -0.13200
C1398       C  0.47112365  0.89351541  0.12076434    -0.28400
H1399       H  0.45457155  0.86865505  0.13782408     0.15800
H1400       H  0.47960647  0.89793647  0.10576224     0.16400
C1401       C  0.38758947  0.94659060  0.20240648    -0.13200
C1402       C  0.38292046  0.92973540  0.21571085    -0.28400
H1403       H  0.37427815  0.95682992  0.19644875     0.15800
H1404       H  0.39614777  0.91980240  0.22231719     0.16400
C1405       C  0.39026880  0.94436346  0.10731332    -0.13200
C1406       C  0.39291773  0.95182940  0.08689869    -0.28400
H1407       H  0.37704007  0.93292765  0.11083439     0.15800
H1408       H  0.40707478  0.96188847  0.08288078     0.16400
C1409       C  0.70958009  0.61907566  0.55403394    -0.13200
C1410       C  0.69217837  0.61820105  0.54059203    -0.28400
H1411       H  0.71822887  0.60402088  0.55815177     0.15800
H1412       H  0.68400814  0.63338500  0.53599133     0.16400
C1413       C  0.49714947  0.65607727  0.52109298    -0.13200
C1414       C  0.50712413  0.65679210  0.50137301    -0.28400
H1415       H  0.47934970  0.65601818  0.52182623     0.15800
H1416       H  0.52480676  0.65487382  0.50048807     0.16400
C1417       C  0.57238895  0.58423697  0.54095991    -0.13200
C1418       C  0.58721356  0.59039255  0.52587635    -0.28400
H1419       H  0.57245339  0.56754156  0.54729364     0.15800
H1420       H  0.58687005  0.60707187  0.51950389     0.16400
C1421       C  0.57410497  0.66464189  0.64332172    -0.13200
C1422       C  0.56460014  0.67480415  0.62614641    -0.28400
H1423       H  0.57523476  0.64678933  0.64342808     0.15800
H1424       H  0.56289661  0.69259239  0.62595825     0.16400
C1425       C  0.65744955  0.71346809  0.63740213    -0.13200
C1426       C  0.67880500  0.70985661  0.64110660    -0.28400
H1427       H  0.65072529  0.71123967  0.62100948     0.15800
H1428       H  0.68535145  0.71204885  0.65758979     0.16400
C1429       C  0.51225925  0.59272352  0.65183909    -0.13200
C1430       C  0.50266003  0.60390005  0.63523482    -0.28400
H1431       H  0.50348067  0.59242899  0.66731487     0.15800
H1432       H  0.48674009  0.61109260  0.63864006     0.16400
C1433       C  0.60930190  0.56049667  0.59994534    -0.13200
C1434       C  0.62255316  0.54507867  0.59151544    -0.28400
H1435       H  0.61055582  0.57752567  0.59470741     0.15800
H1436       H  0.62122984  0.52806119  0.59676567     0.16400
C1437       C  0.71399533  0.60987068  0.65442271    -0.13200
C1438       C  0.72789487  0.62702585  0.65331302    -0.28400
H1439       H  0.70443457  0.60513946  0.64007413     0.15800
H1440       H  0.73833116  0.63123636  0.66719434     0.16400
C1441       C  0.63090307  0.54959270  0.70467381    -0.13200
C1442       C  0.62498680  0.53648038  0.68794203    -0.28400
H1443       H  0.61823258  0.55828995  0.71367654     0.15800
H1444       H  0.63746524  0.52726749  0.67918626     0.16400
C1445       C  0.65750646  0.63785894  0.73078409    -0.13200
C1446       C  0.66201000  0.65642938  0.71991714    -0.28400
H1447       H  0.64110877  0.63490221  0.73705916     0.15800
H1448       H  0.67857636  0.65941334  0.71409430     0.16400
C1449       C  0.87680583  0.93596910  0.69457810    -0.13200
C1450       C  0.88236396  0.94695954  0.67635795    -0.28400
H1451       H  0.88966892  0.92900047  0.70475969     0.15800
H1452       H  0.86966047  0.95470706  0.66655507     0.16400
C1453       C  0.98321112  0.87894194  0.63583777    -0.13200
C1454       C  0.99282449  0.86931483  0.61842251    -0.28400
H1455       H  0.99093749  0.87621498  0.65168948     0.15800
H1456       H  0.00778800  0.86020954  0.62168766     0.16400
C1457       C  0.85935943  0.84274946  0.71042259    -0.13200
C1458       C  0.87944107  0.84404210  0.70140516    -0.28400
H1459       H  0.85308287  0.82723888  0.71663575     0.15800
H1460       H  0.88564006  0.85983375  0.69579692     0.16400
C1461       C  0.95661310  0.79754598  0.62146441    -0.13200
C1462       C  0.94731648  0.79502610  0.60147513    -0.28400
H1463       H  0.97078359  0.80826314  0.62329820     0.15800
H1464       H  0.93175855  0.78643090  0.59997073     0.16400
C1465       C  0.87859338  0.93907470  0.58140129    -0.13200
C1466       C  0.90023576  0.94319318  0.58047172    -0.28400
H1467       H  0.87100150  0.93471788  0.59689439     0.15800
H1468       H  0.90776337  0.94822782  0.56515218     0.16400
C1469       C  0.90085960  0.88543800  0.51629550    -0.13200
C1470       C  0.91743961  0.89186847  0.52948922    -0.28400
H1471       H  0.89957410  0.86839165  0.51103338     0.15800
H1472       H  0.91837676  0.90883562  0.53511239     0.16400
C1473       C  0.75491993  0.74697499  0.57627455    -0.13200
C1474       C  0.76416593  0.72717004  0.57978342    -0.28400
H1475       H  0.73719109  0.74839474  0.57522257     0.15800
H1476       H  0.78176387  0.72596755  0.58233367     0.16400
C1477       C  0.85504377  0.78740890  0.61787130    -0.13200
C1478       C  0.85643145  0.77573090  0.63653753    -0.28400
H1479       H  0.86942107  0.79598694  0.61174327     0.15800
H1480       H  0.84259452  0.76618748  0.64243299     0.16400
C1481       C  0.80350314  0.85353294  0.53552522    -0.13200
C1482       C  0.79860033  0.87446320  0.54089436    -0.28400
H1483       H  0.81552662  0.85029329  0.52281007     0.15800
H1484       H  0.78803329  0.87768811  0.55486003     0.16400
C1485       C  0.78232230  0.84988833  0.64235056    -0.13200
C1486       C  0.79061912  0.87040767  0.64256540    -0.28400
H1487       H  0.77697846  0.84228507  0.65754439     0.15800
H1488       H  0.79555081  0.87813900  0.62728987     0.16400
C1489       C  0.44511002  0.28733784  0.61015420    -0.13200
C1490       C  0.43638859  0.29060591  0.59006297    -0.28400
H1491       H  0.46187829  0.29222031  0.61370971     0.15800
H1492       H  0.41963135  0.28540637  0.58681960     0.16400
C1493       C  0.27052493  0.40815226  0.74730631    -0.13200
C1494       C  0.25058803  0.40729834  0.73773419    -0.28400
H1495       H  0.27181570  0.40837285  0.76510353     0.15800
H1496       H  0.24929824  0.40525797  0.72005154     0.16400
C1497       C  0.36550437  0.33283146  0.70875691    -0.13200
C1498       C  0.38265339  0.33137891  0.69502531    -0.28400
H1499       H  0.35722807  0.31801690  0.71429796     0.15800
H1500       H  0.39141982  0.34611585  0.69003865     0.16400
C1501       C  0.49396463  0.49802017  0.65596210    -0.13200
C1502       C  0.51362161  0.49339971  0.64716970    -0.28400
H1503       H  0.49150372  0.51353437  0.66450216     0.15800
H1504       H  0.51548183  0.47911828  0.63657309     0.16400
C1505       C  0.45723631  0.39289730  0.61537728    -0.13200
C1506       C  0.47155017  0.39078800  0.59878150    -0.28400
H1507       H  0.44672547  0.37918035  0.61983129     0.15800
H1508       H  0.48271047  0.40415885  0.59491518     0.16400
C1509       C  0.38489572  0.45272463  0.68812007    -0.13200
C1510       C  0.38337939  0.43740640  0.70379980    -0.28400
H1511       H  0.37004203  0.46021264  0.68172172     0.15800
H1512       H  0.39824215  0.43041212  0.71071258     0.16400
C1513       C  0.32286947  0.48331197  0.48712388    -0.13200
C1514       C  0.32381720  0.50369992  0.49581975    -0.28400
H1515       H  0.32219463  0.48117910  0.46941905     0.15800
H1516       H  0.32606827  0.50584297  0.51339695     0.16400
C1517       C  0.37535142  0.45424860  0.58512709    -0.13200
C1518       C  0.39547578  0.46326060  0.58434603    -0.28400
H1519       H  0.36806580  0.45013278  0.60084964     0.15800
H1520       H  0.40266570  0.46795972  0.56875387     0.16400
C1521       C  0.39680396  0.38579825  0.51178355    -0.13200
C1522       C  0.41667104  0.39041506  0.52000621    -0.28400
H1523       H  0.39254301  0.36896422  0.50745100     0.15800
H1524       H  0.42100409  0.40733383  0.52394420     0.16400
C1525       C  0.35114214  0.24144976  0.59849412    -0.13200
C1526       C  0.36384296  0.23345160  0.61470861    -0.28400
H1527       H  0.34835971  0.23060918  0.58454897     0.15800
H1528       H  0.36983801  0.21677682  0.61247296     0.16400
C1529       C  0.31384195  0.35181040  0.54743070    -0.13200
C1530       C  0.30588383  0.37181767  0.55272266    -0.28400
H1531       H  0.32638285  0.35047375  0.53487607     0.15800
H1532       H  0.29479556  0.37358605  0.56653500     0.16400
C1533       C  0.30406916  0.33797339  0.65003810    -0.13200
C1534       C  0.31229335  0.35852004  0.64919904    -0.28400
H1535       H  0.29650981  0.33191432  0.66497532     0.15800
H1536       H  0.31908889  0.36473473  0.63395198     0.16400
C1537       C  0.51202575  0.50372974  0.32444343    -0.13200
C1538       C  0.49179578  0.49480056  0.32358530    -0.28400
H1539       H  0.51394750  0.52103602  0.32857244     0.15800
H1540       H  0.48996318  0.47715127  0.32135757     0.16400
C1541       C  0.62754072  0.44914308  0.27075220    -0.13200
C1542       C  0.62300955  0.46471897  0.28565482    -0.28400
H1543       H  0.61409690  0.44041236  0.26286106     0.15800
H1544       H  0.63640044  0.47386662  0.29314709     0.16400
C1545       C  0.72406617  0.36558710  0.33612257    -0.13200
C1546       C  0.71063537  0.38309722  0.33547911    -0.28400
H1547       H  0.73383728  0.36133163  0.32186808     0.15800
H1548       H  0.70168640  0.38799485  0.35007790     0.16400
C1549       C  0.66811049  0.50468909  0.48871397    -0.13200
C1550       C  0.66939547  0.48436416  0.49742572    -0.28400
H1551       H  0.66701863  0.50658613  0.47101047     0.15800
H1552       H  0.66873878  0.48228451  0.51511749     0.16400
C1553       C  0.61541690  0.45973691  0.40187677    -0.13200
C1554       C  0.61761486  0.45326079  0.38102903    -0.28400
H1555       H  0.60164736  0.46997575  0.40661739     0.15800
H1556       H  0.63097150  0.44233137  0.37662036     0.16400
C1557       C  0.70076737  0.38191657  0.43068835    -0.13200
C1558       C  0.69566695  0.36060724  0.43421442    -0.28400
H1559       H  0.71225519  0.38618718  0.41779086     0.15800
H1560       H  0.68254472  0.35648780  0.44550365     0.16400
C1561       C  0.49309121  0.32792073  0.47140653    -0.13200
C1562       C  0.50174267  0.32718344  0.49179336    -0.28400
H1563       H  0.47547432  0.32948790  0.46923065     0.15800
H1564       H  0.51942681  0.32687394  0.49399019     0.16400
C1565       C  0.58218954  0.38609734  0.45254707    -0.13200
C1566       C  0.60242330  0.38064726  0.45918479    -0.28400
H1567       H  0.57735806  0.40329269  0.45251364     0.15800
H1568       H  0.60746206  0.36352284  0.45924888     0.16400
C1569       C  0.52945518  0.39814393  0.37199232    -0.13200
C1570       C  0.54187079  0.39911879  0.35382691    -0.28400
H1571       H  0.52098829  0.41270779  0.37786250     0.15800
H1572       H  0.54942532  0.38427747  0.34739405     0.16400
C1573       C  0.63529483  0.33657198  0.26829850    -0.13200
C1574       C  0.63601225  0.35558215  0.27937528    -0.28400
H1575       H  0.64714223  0.33322366  0.25546953     0.15800
H1576       H  0.62460479  0.35829714  0.29275831     0.16400
C1577       C  0.55508330  0.29768745  0.36651433    -0.13200
C1578       C  0.55127364  0.30366595  0.34552968    -0.28400
H1579       H  0.56744708  0.28534263  0.37003105     0.15800
H1580       H  0.54035328  0.31734304  0.34210864     0.16400
C1581       C  0.65116679  0.27351014  0.34074935    -0.13200
C1582       C  0.67046477  0.28315698  0.33638672    -0.28400
H1583       H  0.64689039  0.26940070  0.35753109     0.15800
H1584       H  0.67479958  0.28674333  0.31948266     0.16400
C1585       C  0.49958085  0.81498503  0.99529487    -0.13200
C1586       C  0.50812364  0.81507573  0.01573703    -0.28400
H1587       H  0.48189742  0.81468098  0.99307706     0.15800
H1588       H  0.52567420  0.81720227  0.01804851     0.16400
C1589       C  0.59208160  0.73157478  0.76533760    -0.13200
C1590       C  0.59194091  0.74023105  0.74500167    -0.28400
H1591       H  0.59387428  0.71392643  0.76752367     0.15800
H1592       H  0.59175927  0.75798389  0.74292588     0.16400
C1593       C  0.55986306  0.78862176  0.87079369    -0.13200
C1594       C  0.56671474  0.78623210  0.89171718    -0.28400
H1595       H  0.54569854  0.79884918  0.86726490     0.15800
H1596       H  0.58197916  0.77768565  0.89508754     0.16400
C1597       C  0.61343725  0.87081463  0.95916096    -0.13200
C1598       C  0.59274974  0.87390362  0.96560520    -0.28400
H1599       H  0.61758040  0.85623044  0.94970005     0.15800
H1600       H  0.58814344  0.88916444  0.97367034     0.16400
C1601       C  0.66758763  0.78053348  0.87755492    -0.13200
C1602       C  0.66610519  0.77035913  0.85799018    -0.28400
H1603       H  0.65286570  0.78576354  0.88608419     0.15800
H1604       H  0.68079664  0.76471187  0.84967660     0.16400
C1605       C  0.72468988  0.86630666  0.94047629    -0.13200
C1606       C  0.70905841  0.86887523  0.95566565    -0.28400
H1607       H  0.73166448  0.88076390  0.93270404     0.15800
H1608       H  0.70256433  0.85448079  0.96396585     0.16400
C1609       C  0.53155564  0.87823736  0.88627562    -0.13200
C1610       C  0.53770266  0.89924346  0.88899549    -0.28400
H1611       H  0.53017167  0.87123107  0.86990690     0.15800
H1612       H  0.53857418  0.90604414  0.90549649     0.16400
C1613       C  0.62340147  0.95117265  0.90556253    -0.13200
C1614       C  0.62440895  0.94321236  0.88510118    -0.28400
H1615       H  0.60928052  0.96082971  0.91051312     0.15800
H1616       H  0.63752238  0.93194605  0.88079360     0.16400
C1617       C  0.74113174  0.91348517  0.73501021    -0.13200
C1618       C  0.76137630  0.91648195  0.74341782    -0.28400
H1619       H  0.73917286  0.91019425  0.71756799     0.15800
H1620       H  0.76357033  0.91777415  0.76108349     0.16400
C1621       C  0.71394813  0.86788436  0.83885572    -0.13200
C1622       C  0.72549197  0.84900557  0.83893598    -0.28400
H1623       H  0.70791462  0.87463980  0.85421818     0.15800
H1624       H  0.73212274  0.84243313  0.82375436     0.16400
C1625       C  0.63257268  0.94018560  0.78916728    -0.13200
C1626       C  0.61269758  0.93047327  0.78776615    -0.28400
H1627       H  0.63474162  0.95445002  0.79974272     0.15800
H1628       H  0.61092535  0.91522718  0.77857242     0.16400
C1629       C  0.64951571  0.83690129  0.77653615    -0.13200
C1630       C  0.63120678  0.83590691  0.78872762    -0.28400
H1631       H  0.65718508  0.82195033  0.77051760     0.15800
H1632       H  0.62342664  0.85099445  0.79426741     0.16400
C1633       C  0.74729079  0.23805735  0.40397689    -0.13200
C1634       C  0.75595145  0.25756856  0.39793942    -0.28400
H1635       H  0.73092659  0.23729777  0.41091070     0.15800
H1636       H  0.77239605  0.25809627  0.39114939     0.16400
C1637       C  0.83021369  0.00297395  0.48876507    -0.13200
C1638       C  0.82837959  0.98256697  0.48023882    -0.28400
H1639       H  0.83233201  0.00512386  0.50635864     0.15800
H1640       H  0.82750496  0.98032919  0.46255327     0.16400
C1641       C  0.79518930  0.12227297  0.43013555    -0.13200
C1642       C  0.79575476  0.10168551  0.42180310    -0.28400
H1643       H  0.80177239  0.12563250  0.44639539     0.15800
H1644       H  0.78955399  0.09866931  0.40532382     0.16400
C1645       C  0.89097779  0.01960782  0.38369284    -0.13200
C1646       C  0.89467488  0.02940957  0.40309341    -0.28400
H1647       H  0.87447226  0.01462536  0.37907390     0.35000
H1648       H  0.91130488  0.03406658  0.40763108     0.16400
C1649       C  0.75249342  0.11659496  0.33207906    -0.13200
C1650       C  0.74489021  0.13530240  0.34113428    -0.28400
H1651       H  0.74043228  0.10382517  0.32875648     0.15800
H1652       H  0.72731313  0.13609636  0.34385461     0.16400
C1653       C  0.85891122  0.05161890  0.30114123    -0.13200
C1654       C  0.87863744  0.05566448  0.29202126    -0.28400
H1655       H  0.85777823  0.04050899  0.31503717     0.15800
H1656       H  0.88020854  0.06831525  0.27956420     0.16400
C1657       C  0.90740441  0.11190977  0.46430411    -0.13200
C1658       C  0.88730318  0.11447481  0.45594882    -0.28400
H1659       H  0.91127827  0.09709211  0.47346857     0.15800
H1660       H  0.88389331  0.12850312  0.44545737     0.16400
C1661       C  0.96489924  0.09130851  0.38730713    -0.13200
C1662       C  0.95312275  0.09270735  0.36864274    -0.28400
H1663       H  0.97351504  0.07625064  0.39144884     0.15800
H1664       H  0.94509591  0.10805876  0.36434945     0.16400
C1665       C  0.87393805  0.15181813  0.29458682    -0.13200
C1666       C  0.85356732  0.15333366  0.28610111    -0.28400
H1667       H  0.87991024  0.13613218  0.30065191     0.15800
H1668       H  0.84778495  0.16883624  0.27941959     0.16400
C1669       C  0.94457957  0.20480075  0.37592247    -0.13200
C1670       C  0.96016006  0.18972585  0.37954184    -0.28400
H1671       H  0.93593867  0.21192722  0.38977705     0.15800
H1672       H  0.96931511  0.18321222  0.36571905     0.16400
C1673       C  0.84508303  0.21594303  0.34634715    -0.13200
C1674       C  0.84252521  0.20523867  0.36541914    -0.28400
H1675       H  0.83095801  0.22002526  0.33624593     0.15800
H1676       H  0.85665600  0.20167609  0.37571375     0.16400
C1677       C  0.99895161  0.50023768  0.17160134    -0.13200
C1678       C  0.01898509  0.49104799  0.17296017    -0.28400
H1679       H  0.99752254  0.51780741  0.16867019     0.15800
H1680       H  0.02048288  0.47328891  0.17428008     0.16400
C1681       C  0.76243089  0.41615836  0.24299444    -0.13200
C1682       C  0.74261431  0.41458663  0.23320546    -0.28400
H1683       H  0.76338423  0.41788090  0.26072713     0.15800
H1684       H  0.74161540  0.41075748  0.21579738     0.16400
C1685       C  0.87830906  0.44029142  0.20580928    -0.13200
C1686       C  0.88263861  0.45581050  0.19086048    -0.28400
H1687       H  0.89175431  0.43310734  0.21505924     0.15800
H1688       H  0.86915913  0.46350896  0.18209628     0.16400
C1689       C  0.80094980  0.36182455  0.13269222    -0.13200
C1690       C  0.79255487  0.36111354  0.15289433    -0.28400
H1691       H  0.81291540  0.37446111  0.12869547     0.15800
H1692       H  0.78203519  0.34742282  0.15745641     0.16400
C1693       C  0.88999975  0.44773146  0.09207598    -0.13200
C1694       C  0.90795410  0.46057824  0.09324550    -0.28400
H1695       H  0.88247442  0.44151338  0.10697307     0.15800
H1696       H  0.91534721  0.46730009  0.07851061     0.16400
C1697       C  0.82425567  0.34839290  0.04123337    -0.13200
C1698       C  0.81698162  0.36929120  0.04296794    -0.28400
H1699       H  0.83998072  0.34517125  0.03355262     0.15800
H1700       H  0.80179375  0.37271448  0.05158783     0.16400
C1701       C  0.01182304  0.33343818  0.00803129    -0.13200
C1702       C  0.00440689  0.32939439  0.98754151    -0.28400
H1703       H  0.02890292  0.33783853  0.01069622     0.15800
H1704       H  0.98693831  0.32710251  0.98477868     0.16400
C1705       C  0.92299921  0.36901347  0.00074547    -0.13200
C1706       C  0.91137104  0.38676556  0.99466676    -0.28400
H1707       H  0.92863353  0.35846584  0.98750060     0.15800
H1708       H  0.90929859  0.38910532  0.97710316     0.16400
C1709       C  0.96287531  0.39918034  0.12386452    -0.13200
C1710       C  0.97163144  0.40022900  0.10366582    -0.28400
H1711       H  0.95527765  0.38403330  0.12950643     0.15800
H1712       H  0.97969902  0.41516562  0.09814059     0.16400
C1713       C  0.93040069  0.24117967  0.23959536    -0.13200
C1714       C  0.92830173  0.25061363  0.25953710    -0.28400
H1715       H  0.93082823  0.22335982  0.23818131     0.15800
H1716       H  0.92657979  0.26836577  0.26081180     0.16400
C1717       C  0.88220273  0.34046747  0.20040673    -0.13200
C1718       C  0.86405722  0.34117032  0.21288447    -0.28400
H1719       H  0.88775319  0.35519072  0.19197943     0.15800
H1720       H  0.85874823  0.32678275  0.22198768     0.16400
C1721       C  0.95433676  0.30136878  0.12658761    -0.13200
C1722       C  0.94474355  0.30009387  0.10662981    -0.28400
H1723       H  0.96842479  0.31206346  0.12908647     0.15800
H1724       H  0.92952350  0.29094924  0.10470737     0.16400
C1725       C  0.86057505  0.26483040  0.13799090    -0.13200
C1726       C  0.84112602  0.27442665  0.14131686    -0.28400
H1727       H  0.86528768  0.25973734  0.12156224     0.15800
H1728       H  0.83625783  0.27899641  0.15785895     0.16400
C1729       C  0.49691248  0.99093918  0.16109566    -0.13200
C1730       C  0.51708516  0.98201774  0.16032052    -0.28400
H1731       H  0.49480409  0.00838404  0.15785678     0.15800
H1732       H  0.51898721  0.96429992  0.16168261     0.16400
C1733       C  0.73536274  0.08330641  0.25093926    -0.13200
C1734       C  0.75594130  0.08493679  0.24309029    -0.28400
H1735       H  0.73258795  0.08343230  0.26854842     0.15800
H1736       H  0.75858087  0.08727843  0.22562158     0.16400
C1737       C  0.62729888  0.05483455  0.19651136    -0.13200
C1738       C  0.62655739  0.03723475  0.18330824    -0.28400
H1739       H  0.61214937  0.06270356  0.20156940     0.15800
H1740       H  0.64166315  0.02882360  0.17906217     0.16400
C1741       C  0.76537377  0.22897138  0.07563858    -0.13200
C1742       C  0.75791234  0.24982531  0.07454146    -0.28400
H1743       H  0.78272715  0.22593963  0.07831452     0.15800
H1744       H  0.74039665  0.25285257  0.07339874     0.16400
C1745       C  0.71714124  0.12278878  0.13271195    -0.13200
C1746       C  0.72180440  0.12679559  0.15378998    -0.28400
H1747       H  0.70660676  0.10897676  0.12845220     0.15800
H1748       H  0.73092666  0.14153430  0.15822006     0.16400
C1749       C  0.67568068  0.98023287  0.99666941    -0.13200
C1750       C  0.67697282  0.99986619  0.98649227    -0.28400
H1751       H  0.67304733  0.97962670  0.01429022     0.15800
H1752       H  0.67771644  0.00052228  0.96869060     0.16400
C1753       C  0.61919219  0.01501999  0.08620307    -0.13200
C1754       C  0.61394610  0.02402488  0.06685022    -0.28400
H1755       H  0.63630171  0.01317404  0.09083975     0.15800
H1756       H  0.59681969  0.02559144  0.06215732     0.16400
C1757       C  0.70170797  0.12931923  0.03530932    -0.13200
C1758       C  0.70651438  0.10832937  0.04062747    -0.28400
H1759       H  0.68857570  0.13263999  0.02370085     0.15800
H1760       H  0.71797643  0.10514292  0.05392211     0.16400
C1761       C  0.60448474  0.12195172  0.02727881    -0.13200
C1762       C  0.60689077  0.10511910  0.01313336    -0.28400
H1763       H  0.61816096  0.12698423  0.03762323     0.15800
H1764       H  0.59360648  0.10049501  0.00213107     0.16400
C1765       C  0.55193393  0.08175698  0.10737380    -0.13200
C1766       C  0.54033126  0.08236016  0.08854945    -0.28400
H1767       H  0.55878053  0.09687256  0.11410642     0.15800
H1768       H  0.53273460  0.06752466  0.08203113     0.16400
C1769       C  0.57851501  0.25239898  0.21967166    -0.13200
C1770       C  0.57822065  0.24242519  0.23937943    -0.28400
H1771       H  0.58000292  0.27019690  0.21878778     0.15800
H1772       H  0.57886446  0.22458323  0.24033671     0.16400
C1773       C  0.62285220  0.15295617  0.18781410    -0.13200
C1774       C  0.63968606  0.15337602  0.20211225    -0.28400
H1775       H  0.61814946  0.13766578  0.17976413     0.15800
H1776       H  0.64392670  0.16840667  0.21085803     0.16400
C1777       C  0.55224366  0.20345160  0.10781325    -0.13200
C1778       C  0.53893099  0.18606633  0.10572820    -0.28400
H1779       H  0.55798684  0.21197719  0.09326613     0.15800
H1780       H  0.53275769  0.17799020  0.12035497     0.16400
C1781       C  0.65121434  0.21663849  0.11958624    -0.13200
C1782       C  0.67080460  0.20959602  0.12655869    -0.28400
H1783       H  0.64759970  0.21715310  0.10212170     0.15800
H1784       H  0.67435505  0.20910475  0.14403980     0.16400
C1785       C  0.99444419  0.15881293  0.51133473    -0.13200
C1786       C  0.00326031  0.15806414  0.49109748    -0.28400
H1787       H  0.97675242  0.15849455  0.51332907     0.15800
H1788       H  0.02090351  0.15646143  0.48927785     0.16400
C1789       C  0.08766005  0.24505136  0.73894683    -0.13200
C1790       C  0.08839923  0.23536989  0.75879063    -0.28400
H1791       H  0.08878652  0.26285296  0.73772666     0.15800
H1792       H  0.08915355  0.21754779  0.75995610     0.16400
C1793       C  0.05317801  0.19715509  0.61144001    -0.13200
C1794       C  0.04750504  0.19275042  0.63232396    -0.28400
H1795       H  0.06699388  0.20798042  0.60824322     0.15800
H1796       H  0.03519465  0.18023962  0.63558898     0.16400
C1797       C  0.01201422  0.98325027  0.65957767    -0.13200
C1798       C  0.99910575  0.97950359  0.64202836    -0.28400
H1799       H  0.00676636  0.97860152  0.67593648     0.15800
H1800       H  0.00434309  0.98549918  0.62607724     0.16400
C1801       C  0.03344493  0.07841995  0.61730323    -0.13200
C1802       C  0.04111851  0.09893615  0.61931147    -0.28400
H1803       H  0.02225719  0.07439970  0.60396493     0.15800
H1804       H  0.05344632  0.10255676  0.63172216     0.16400
C1805       C  0.12606043  0.02476756  0.68704351    -0.13200
C1806       C  0.12954430  0.03929873  0.70324743    -0.28400
H1807       H  0.13997556  0.01728967  0.67884049     0.15800
H1808       H  0.11564717  0.04620244  0.71195487     0.16400
C1809       C  0.12740021  0.14277206  0.69796037    -0.13200
C1810       C  0.14563358  0.14120503  0.71034508    -0.28400
H1811       H  0.12112890  0.12838780  0.68933490     0.15800
H1812       H  0.15161552  0.15529496  0.71962084     0.16400
C1813       C  0.12735871  0.03791297  0.58701921    -0.13200
C1814       C  0.11066162  0.02350603  0.58822264    -0.28400
H1815       H  0.13241095  0.04698489  0.60158926     0.15800
H1816       H  0.10607504  0.01358400  0.57407327     0.16400
C1817       C  0.10128494  0.10800091  0.52334998    -0.13200
C1818       C  0.08186709  0.10210667  0.53161102    -0.28400
H1819       H  0.10563936  0.12529099  0.52204424     0.15800
H1820       H  0.07759355  0.08478449  0.53286776     0.16400
C1821       C  0.26143009  0.22713133  0.57684335    -0.13200
C1822       C  0.25513229  0.24806499  0.58034684    -0.28400
H1823       H  0.27861304  0.22340002  0.57402696     0.15800
H1824       H  0.23829866  0.25162531  0.58489616     0.16400
C1825       C  0.17017791  0.20234888  0.63820935    -0.13200
C1826       C  0.15046061  0.21061311  0.63311037    -0.28400
H1827       H  0.17458484  0.19989886  0.65531581     0.15800
H1828       H  0.14595240  0.21317739  0.61605797     0.16400
C1829       C  0.19676302  0.13116758  0.53968464    -0.13200
C1830       C  0.20318162  0.11007212  0.54140326    -0.28400
H1831       H  0.18223233  0.13522385  0.53015888     0.15800
H1832       H  0.21643702  0.10576670  0.55254402     0.16400
C1833       C  0.22463777  0.12412688  0.64219979    -0.13200
C1834       C  0.21045326  0.10720869  0.64311144    -0.28400
H1835       H  0.23406145  0.12876877  0.65665606     0.15800
H1836       H  0.20144392  0.10218990  0.62851141     0.16400
C1837       C  0.50974014  0.15572081  0.97268037    -0.13200
C1838       C  0.50016265  0.15526935  0.99255934    -0.28400
H1839       H  0.52751364  0.15569152  0.97152744     0.15800
H1840       H  0.48250348  0.15319218  0.99373411     0.16400
C1841       C  0.42525029  0.22945894  0.73579048    -0.13200
C1842       C  0.40695639  0.23406463  0.72434118    -0.28400
H1843       H  0.44131540  0.23203610  0.72861941     0.15800
H1844       H  0.39111709  0.23038912  0.73160551     0.16400
C1845       C  0.45521408  0.19307501  0.85428707    -0.13200
C1846       C  0.46989365  0.17727140  0.85856081    -0.28400
H1847       H  0.44730584  0.20152374  0.86783401     0.15800
H1848       H  0.47836829  0.16936790  0.84502752     0.16400
C1849       C  0.26342495  0.06464245  0.73226371    -0.13200
C1850       C  0.24395046  0.06648927  0.74244150    -0.28400
H1851       H  0.26410092  0.06437971  0.71444241     0.15800
H1852       H  0.24342851  0.06845320  0.76016718     0.16400
C1853       C  0.36834611  0.13292993  0.75978440    -0.13200
C1854       C  0.38767672  0.13300323  0.77051595    -0.28400
H1855       H  0.36205981  0.14797095  0.75254717     0.15800
H1856       H  0.39426619  0.11779678  0.77711872     0.16400
C1857       C  0.49201337  0.97409772  0.82358704    -0.13200
C1858       C  0.51189561  0.98337629  0.82668113    -0.28400
H1859       H  0.49043784  0.95628908  0.82313740     0.15800
H1860       H  0.51325929  0.00108739  0.82879495     0.16400
C1861       C  0.45784539  0.07701680  0.85718092    -0.13200
C1862       C  0.47147929  0.07821534  0.87458711    -0.28400
H1863       H  0.44950436  0.09168801  0.85139158     0.15800
H1864       H  0.48039572  0.06376129  0.88002371     0.16400
C1865       C  0.37485552  0.03190668  0.77419204    -0.13200
C1866       C  0.37732696  0.01722709  0.79035622    -0.28400
H1867       H  0.38917824  0.03747259  0.76522050     0.15800
H1868       H  0.36290679  0.01108345  0.79878761     0.16400
C1869       C  0.27040423  0.24361735  0.90534000    -0.13200
C1870       C  0.26128046  0.22353239  0.90267874    -0.28400
H1871       H  0.28804827  0.24512438  0.90734988     0.15800
H1872       H  0.24383577  0.22212813  0.89926111     0.16400
C1873       C  0.36089555  0.18843168  0.86107443    -0.13200
C1874       C  0.36014816  0.19935619  0.84189928    -0.28400
H1875       H  0.37634532  0.18167473  0.86685797     0.15800
H1876       H  0.34507341  0.20713516  0.83645903     0.16400
C1877       C  0.30098118  0.11321607  0.84535264    -0.13200
C1878       C  0.29621770  0.11741596  0.82431525    -0.28400
H1879       H  0.30954736  0.09815497  0.84957175     0.15800
H1880       H  0.28873601  0.13301869  0.81998062     0.16400
C1881       C  0.34399805  0.99715825  0.99896731    -0.13200
C1882       C  0.34229333  0.97646031  0.99112225    -0.28400
H1883       H  0.34748916  0.99995548  0.01625611     0.15800
H1884       H  0.34055744  0.97368404  0.97357710     0.16400
C1885       C  0.39635159  0.01089486  0.89300413    -0.13200
C1886       C  0.37626907  0.01990320  0.89375760    -0.28400
H1887       H  0.40473260  0.00607706  0.90799284     0.15800
H1888       H  0.36773189  0.02381793  0.87857873     0.16400
C1889       C  0.29933199  0.09883630  0.94398212    -0.13200
C1890       C  0.30632735  0.11946290  0.94836727    -0.28400
H1891       H  0.28731868  0.09622265  0.93103119     0.15800
H1892       H  0.31951618  0.12190023  0.96015175     0.16400
C1893       C  0.39774812  0.10254117  0.94268283    -0.13200
C1894       C  0.41858508  0.10135638  0.94944744    -0.28400
H1895       H  0.39303706  0.11509502  0.93092720     0.15800
H1896       H  0.42356927  0.08813039  0.96031296     0.16400
C1897       C  0.16694859  0.98769951  0.48914346    -0.13200
C1898       C  0.16657043  0.00795094  0.48030337    -0.28400
H1899       H  0.16657919  0.98583550  0.50687746     0.15800
H1900       H  0.16479806  0.00998019  0.46266982     0.16400
C1901       C  0.26070726  0.76158612  0.41117533    -0.13200
C1902       C  0.25066267  0.74234646  0.41561399    -0.28400
H1903       H  0.27818786  0.76186065  0.40778802     0.15800
H1904       H  0.23296177  0.74180622  0.41748175     0.16400
C1905       C  0.21736116  0.87481718  0.43456299    -0.13200
C1906       C  0.20166760  0.87744264  0.44964914    -0.28400
H1907       H  0.22483889  0.88920327  0.42714423     0.15800
H1908       H  0.19478843  0.86305720  0.45764010     0.16400
C1909       C  0.08110203  0.74050485  0.25729839    -0.13200
C1910       C  0.07949935  0.74839988  0.23670073    -0.28400
H1911       H  0.08330351  0.72295459  0.25983559     0.15800
H1912       H  0.07895397  0.76606399  0.23406193     0.16400
C1913       C  0.15738883  0.78146863  0.34917930    -0.13200
C1914       C  0.15924272  0.79288676  0.36803288    -0.28400
H1915       H  0.17184215  0.77471028  0.34129313     0.15800
H1916       H  0.14464910  0.79902006  0.37617505     0.16400
C1917       C  0.99181109  0.83656601  0.47728926    -0.13200
C1918       C  0.00260729  0.83826558  0.49654833    -0.28400
H1919       H  0.97404152  0.83530525  0.47709114     0.15800
H1920       H  0.02011497  0.84163777  0.49664871     0.16400
C1921       C  0.10159301  0.88282138  0.44871729    -0.13200
C1922       C  0.08077505  0.88963141  0.44830012    -0.28400
H1923       H  0.10555703  0.86630701  0.44319508     0.15800
H1924       H  0.07691736  0.90646857  0.45284448     0.16400
C1925       C  0.05235851  0.79032334  0.36606993    -0.13200
C1926       C  0.03561536  0.80451814  0.36665749    -0.28400
H1927       H  0.05971370  0.78485217  0.38136805     0.15800
H1928       H  0.02772280  0.80951641  0.35146599     0.16400
C1929       C  0.24434648  0.91156907  0.23568053    -0.13200
C1930       C  0.26332232  0.91066658  0.24704617    -0.28400
H1931       H  0.24443763  0.90965377  0.21794129     0.15800
H1932       H  0.26302335  0.91045784  0.26488170     0.16400
C1933       C  0.21460744  0.87746327  0.33260054    -0.13200
C1934       C  0.22420043  0.85750819  0.33291137    -0.28400
H1935       H  0.21090068  0.88589150  0.34789061     0.15800
H1936       H  0.22814019  0.84919211  0.31761939     0.16400
C1937       C  0.14313042  0.84459617  0.27305688    -0.13200
C1938       C  0.12491524  0.84459845  0.28545961    -0.28400
H1939       H  0.14886422  0.82951832  0.26540088     0.15800
H1940       H  0.11901734  0.85989259  0.29256024     0.16400
C1941       C  0.01255605  0.00783494  0.31543951    -0.13200
C1942       C  0.99279348  0.99883411  0.31113134    -0.28400
H1943       H  0.01365030  0.02494187  0.32058888     0.15800
H1944       H  0.99150546  0.98130480  0.30780313     0.16400
C1945       C  0.02251398  0.90608669  0.37180507    -0.13200
C1946       C  0.03519258  0.90574807  0.35375993    -0.28400
H1947       H  0.01507364  0.92133621  0.37732741     0.15800
H1948       H  0.04193626  0.89025531  0.34798262     0.16400
C1949       C  0.12484470  0.96079553  0.28791291    -0.13200
C1950       C  0.12842818  0.94540740  0.27253037    -0.28400
H1951       H  0.13877532  0.96848374  0.29603507     0.15800
H1952       H  0.11458037  0.93813915  0.26390116     0.16400
C1953       C  0.12663851  0.95267082  0.38777396    -0.13200
C1954       C  0.10812138  0.96464539  0.38718160    -0.28400
H1955       H  0.13313493  0.94555328  0.37276909     0.15800
H1956       H  0.10203713  0.97255353  0.40195891     0.16400
C1957       C  0.85106106  0.50340013  0.00409881    -0.13200
C1958       C  0.84490066  0.48351887  0.99632278    -0.28400
H1959       H  0.85774648  0.50482263  0.02059022     0.15800
H1960       H  0.83871486  0.48197395  0.97965329     0.16400
C1961       C  0.76261828  0.73197395  0.90976414    -0.13200
C1962       C  0.77140076  0.75238047  0.90869938    -0.28400
H1963       H  0.74493172  0.73000092  0.91047085     0.15800
H1964       H  0.78899594  0.75433402  0.90677745     0.16400
C1965       C  0.81609809  0.62894297  0.95375576    -0.13200
C1966       C  0.80953458  0.60790959  0.95108098    -0.28400
H1967       H  0.83034256  0.63241538  0.96395094     0.15800
H1968       H  0.79640187  0.60422238  0.93955399     0.16400
C1969       C  0.77300635  0.56257934  0.74037480    -0.13200
C1970       C  0.75379515  0.56029477  0.75098707    -0.28400
H1971       H  0.77303760  0.56484870  0.72268490     0.15800
H1972       H  0.75363256  0.56013214  0.76882341     0.16400
C1973       C  0.79658765  0.62187322  0.83128408    -0.13200
C1974       C  0.80383617  0.62034154  0.85196671    -0.28400
H1975       H  0.78643863  0.63572382  0.82650557     0.15800
H1976       H  0.81496014  0.60709100  0.85626293     0.16400
C1977       C  0.00429693  0.48581855  0.82693102    -0.13200
C1978       C  0.02404582  0.49575371  0.82649823    -0.28400
H1979       H  0.00331089  0.46798587  0.82786121     0.15800
H1980       H  0.02517610  0.51356594  0.82767234     0.16400
C1981       C  0.89105515  0.53104527  0.80029523    -0.13200
C1982       C  0.88776936  0.54726386  0.78581033    -0.28400
H1983       H  0.87705711  0.52190591  0.80644690     0.15800
H1984       H  0.90179658  0.55580563  0.77891336     0.16400
C1985       C  0.90536176  0.51980689  0.90014926    -0.13200
C1986       C  0.88657258  0.53130339  0.90051468    -0.28400
H1987       H  0.91193428  0.51261579  0.91507896     0.15800
H1988       H  0.87983842  0.53786503  0.88535299     0.16400
C1989       C  0.01652396  0.65812485  0.97908038    -0.13200
C1990       C  0.00786129  0.66164086  0.99910972    -0.28400
H1991       H  0.03341929  0.65266637  0.97773646     0.15800
H1992       H  0.99055677  0.66551410  0.00068994     0.16400
C1993       C  0.91574175  0.62234977  0.94800764    -0.13200
C1994       C  0.91619309  0.60367746  0.95985663    -0.28400
H1995       H  0.90024759  0.62854428  0.94175554     0.15800
H1996       H  0.93150019  0.59789628  0.96691555     0.16400
C1997       C  0.97187849  0.59954262  0.87318236    -0.13200
C1998       C  0.97762865  0.57886419  0.87768507    -0.28400
H1999       H  0.96191148  0.60297520  0.85879128     0.15800
H2000       H  0.98623188  0.57515390  0.89285998     0.16400
C2001       C  0.93159375  0.73391726  0.74209618    -0.13200
C2002       C  0.93139673  0.75551189  0.73803844    -0.28400
H2003       H  0.93228756  0.72222843  0.72858664     0.15800
H2004       H  0.93181847  0.76702672  0.75171941     0.16400
C2005       C  0.88772884  0.64432420  0.78251535    -0.13200
C2006       C  0.86840029  0.64375956  0.77179262    -0.28400
H2007       H  0.89471398  0.62923360  0.78899934     0.15800
H2008       H  0.86153309  0.65856727  0.76459772     0.16400
C2009       C  0.95977885  0.70947888  0.86170683    -0.13200
C2010       C  0.97595879  0.69523874  0.86609333    -0.28400
H2011       H  0.95149614  0.71764039  0.87519756     0.15800
H2012       H  0.98469171  0.68766797  0.85254113     0.16400
C2013       C  0.85996725  0.70970624  0.84715502    -0.13200
C2014       C  0.86058444  0.69959650  0.86675237    -0.28400
H2015       H  0.84461287  0.71587286  0.84054835     0.15800
H2016       H  0.87622127  0.69450153  0.87364396     0.16400
loop_ 
_geom_bond_atom_site_label_1 
_geom_bond_atom_site_label_2 
_geom_bond_distance 
_geom_bond_site_symmetry_2 
_ccdc_geom_bond_type 
O1            C4   1.271       .  A
O1           Cd6   2.488       .  S
C2           O11   1.265       .  A
C2            O7   1.270       .  A
C2         C2005   1.468       .  S
O3            C9   1.272       .  A
O3           Cd6   2.502       .  S
C4           O12   1.265       .  A
C4         C2009   1.481       .  S
C5           O10   1.272       .  A
C5            O8   1.263       .  A
C5         C2001   1.476       .  S
Cd6          O13   2.394       .  S
Cd6          O12   2.458       .  S
Cd6          O11   2.433       .  S
Cd6           O7   2.457       .  S
Cd6          O10   2.474       .  S
Cd6           O8   2.453       .  S
C9           O13   1.264       .  A
C9         C2013   1.473       .  S
O14          C17   1.272       .  A
O14         Cd19   2.488       .  S
C15          O24   1.264       .  A
C15          O20   1.270       .  A
C15        C1993   1.474       .  S
O16          C22   1.272       .  A
O16         Cd19   2.480       .  S
C17          O25   1.266       .  A
C17        C2010   1.482       .  S
C18          O23   1.268       .  A
C18          O21   1.268   1_455  A
C18        C1989   1.479       .  S
Cd19         O26   2.404       .  S
Cd19         O25   2.452       .  S
Cd19         O24   2.438       .  S
Cd19         O20   2.480       .  S
Cd19         O23   2.466   1_655  S
Cd19         O21   2.480       .  S
C22          O26   1.260       .  A
C22        C1997   1.465       .  S
O27          C30   1.271       .  A
O27         Cd32   2.494       .  S
C28          O37   1.262       .  A
C28          O33   1.271       .  A
C28        C1998   1.468       .  S
O29          C35   1.270       .  A
O29         Cd32   2.489       .  S
C30          O38   1.265       .  A
C30        C1981   1.481       .  S
C31          O36   1.268       .  A
C31          O34   1.265       .  A
C31        C1977   1.474   1_655  S
Cd32         O39   2.399       .  S
Cd32         O38   2.453       .  S
Cd32         O37   2.425       .  S
Cd32         O33   2.458       .  S
Cd32         O36   2.470       .  S
Cd32         O34   2.451       .  S
C35          O39   1.263       .  A
C35        C1985   1.470       .  S
O40          C43   1.273       .  A
O40         Cd45   2.495       .  S
C41          O50   1.262       .  A
C41          O46   1.272       .  A
C41        C1973   1.479       .  S
O42          C48   1.271       .  A
O42         Cd45   2.499       .  S
C43          O51   1.265       .  A
C43        C1982   1.482       .  S
C44          O49   1.269       .  A
C44          O47   1.267       .  A
C44        C1969   1.478       .  S
Cd45         O52   2.382       .  S
Cd45         O51   2.455       .  S
Cd45         O50   2.449       .  S
Cd45         O46   2.484       .  S
Cd45         O49   2.473       .  S
Cd45         O47   2.455       .  S
C48          O52   1.262       .  A
C48        C2006   1.470       .  S
O53          C56   1.267       .  A
O53         Cd58   2.467       .  S
C54          O63   1.266       .  A
C54          O59   1.268       .  A
C54        C2014   1.469       .  S
O55          C61   1.259       .  A
O55         Cd58   2.404       .  S
C56          O64   1.267       .  A
C56        C1965   1.480       .  S
C57          O62   1.270       .  A
C57          O60   1.263       .  A
C57        C1961   1.484       .  S
Cd58         O65   2.532       .  S
Cd58         O64   2.483       .  S
Cd58         O63   2.450       .  S
Cd58         O59   2.447       .  S
Cd58         O62   2.512       .  S
Cd58         O60   2.466       .  S
C61          O65   1.273       .  A
C61        C1974   1.474       .  S
O66          C69   1.265       .  A
O66         Cd71   2.456       .  S
C67          O76   1.267       .  A
C67          O72   1.266       .  A
C67        C1966   1.479       .  S
O68          C74   1.268       .  A
O68         Cd71   2.484       .  S
C69          O77   1.264       .  A
C69        C1986   1.468       .  S
C70          O75   1.269       .  A
C70          O73   1.262       .  A
C70        C1994   1.475       .  S
Cd71         O78   2.468       .  S
Cd71         O77   2.449       .  S
Cd71         O76   2.476       .  S
Cd71         O72   2.464       .  S
Cd71         O75   2.503       .  S
Cd71         O73   2.436       .  S
C74          O78   1.265       .  A
C74        C1957   1.480   1_556  S
O79          C82   1.271       .  A
O79         Cd84   2.498       .  S
C80          O89   1.264       .  A
C80          O85   1.268       .  A
C80        C1946   1.472       .  S
O81          C87   1.269       .  A
O81         Cd84   2.489       .  S
C82          O90   1.264       .  A
C82        C1949   1.481       .  S
C83          O88   1.267   1_565  A
C83          O86   1.266       .  A
C83        C1941   1.477   1_565  S
Cd84         O91   2.421       .  S
Cd84         O90   2.448       .  S
Cd84         O89   2.452       .  S
Cd84         O85   2.471       .  S
Cd84         O88   2.476   1_565  S
Cd84         O86   2.460       .  S
C87          O91   1.263       .  A
C87        C1954   1.472       .  S
O92          C95   1.270       .  A
O92         Cd97   2.486       .  S
C93         O102   1.264       .  A
C93          O98   1.270       .  A
C93        C1933   1.473       .  S
O94         C100   1.270       .  A
O94         Cd97   2.492       .  S
C95         O103   1.265       .  A
C95        C1950   1.482       .  S
C96         O101   1.269       .  A
C96          O99   1.264       .  A
C96        C1929   1.475       .  S
Cd97        O104   2.405       .  S
Cd97        O103   2.466       .  S
Cd97        O102   2.426       .  S
Cd97         O98   2.481       .  S
Cd97        O101   2.482       .  S
Cd97         O99   2.445       .  S
C100        O104   1.263       .  A
C100       C1937   1.472       .  S
O105        C108   1.270       .  A
O105       Cd110   2.464       .  S
C106        O115   1.263       .  A
C106        O111   1.271       .  A
C106       C1922   1.473       .  S
O107        C113   1.272       .  A
O107       Cd110   2.499       .  S
C108        O116   1.265       .  A
C108       C1926   1.476       .  S
C109        O114   1.270   1_455  A
C109        O112   1.264       .  A
C109       C1917   1.476   1_455  S
Cd110       O117   2.401       .  S
Cd110       O116   2.457       .  S
Cd110       O115   2.430       .  S
Cd110       O111   2.480       .  S
Cd110       O114   2.486   1_455  S
Cd110       O112   2.439       .  S
C113        O117   1.264       .  A
C113       C1945   1.474       .  S
O118        C121   1.270       .  A
O118       Cd123   2.486       .  S
C119        O128   1.263       .  A
C119        O124   1.267       .  A
C119       C1938   1.470       .  S
O120        C126   1.269       .  A
O120       Cd123   2.491       .  S
C121        O129   1.263       .  A
C121       C1925   1.475       .  S
C122        O127   1.267       .  A
C122        O125   1.265       .  A
C122       C1909   1.479       .  S
Cd123       O130   2.419       .  S
Cd123       O129   2.445       .  S
Cd123       O128   2.446       .  S
Cd123       O124   2.470       .  S
Cd123       O127   2.474       .  S
Cd123       O125   2.473       .  S
C126        O130   1.263       .  A
C126       C1913   1.473       .  S
O131        C134   1.270       .  A
O131       Cd136   2.465       .  S
C132        O141   1.264       .  A
C132        O137   1.267       .  A
C132       C1914   1.470       .  S
O133        C139   1.262       .  A
O133       Cd136   2.430       .  S
C134        O142   1.266       .  A
C134       C1905   1.476       .  S
C135        O140   1.267       .  A
C135        O138   1.263       .  A
C135       C1901   1.476       .  S
Cd136       O143   2.498       .  S
Cd136       O142   2.457       .  S
Cd136       O141   2.452       .  S
Cd136       O137   2.464       .  S
Cd136       O140   2.489       .  S
Cd136       O138   2.460       .  S
C139        O143   1.269       .  A
C139       C1934   1.474       .  S
O144        C147   1.272       .  A
O144       Cd149   2.471       .  S
C145        O154   1.264       .  A
C145        O150   1.269       .  A
C145       C1953   1.471       .  S
O146        C152   1.259       .  A
O146       Cd149   2.416       .  S
C147        O155   1.265       .  A
C147       C1906   1.476       .  S
C148        O153   1.267       .  A
C148        O151   1.265       .  A
C148       C1897   1.471       .  S
Cd149       O156   2.496       .  S
Cd149       O155   2.442       .  S
Cd149       O154   2.435       .  S
Cd149       O150   2.471       .  S
Cd149       O153   2.465       .  S
Cd149       O151   2.464       .  S
C152        O156   1.271       .  A
C152       C1921   1.470       .  S
O157        C160   1.269       .  A
O157       Cd162   2.462       .  S
C158        O167   1.265       .  A
C158        O163   1.267       .  A
C158       C1886   1.470       .  S
O159        C165   1.272       .  A
O159       Cd162   2.503       .  S
C160        O168   1.267       .  A
C160       C1889   1.478       .  S
C161        O166   1.269       .  A
C161        O164   1.264       .  A
C161       C1881   1.476   1_545  S
Cd162       O169   2.422       .  S
Cd162       O168   2.453       .  S
Cd162       O167   2.453       .  S
Cd162       O163   2.456       .  S
Cd162       O166   2.494       .  S
Cd162       O164   2.446       .  S
C165        O169   1.260       .  A
C165       C1893   1.474       .  S
O170        C173   1.268       .  A
O170       Cd175   2.482       .  S
C171        O180   1.267       .  A
C171        O176   1.269       .  A
C171       C1890   1.478       .  S
O172        C178   1.269       .  A
O172       Cd175   2.487       .  S
C173        O181   1.264       .  A
C173       C1873   1.473       .  S
C174        O179   1.271       .  A
C174        O177   1.261       .  A
C174       C1877   1.475       .  S
Cd175       O182   2.475       .  S
Cd175       O181   2.451       .  S
Cd175       O180   2.469       .  S
Cd175       O176   2.467       .  S
Cd175       O179   2.497       .  S
Cd175       O177   2.435       .  S
C178        O182   1.266       .  A
C178       C1870   1.482       .  S
O183        C186   1.271       .  A
O183       Cd188   2.494       .  S
C184        O193   1.263       .  A
C184        O189   1.268       .  A
C184       C1861   1.472       .  S
O185        C191   1.261       .  A
O185       Cd188   2.417       .  S
C186        O194   1.264   1_545  A
C186       C1866   1.480       .  S
C187        O192   1.267       .  A
C187        O190   1.265   1_565  A
C187       C1857   1.478       .  S
Cd188       O195   2.498   1_545  S
Cd188       O194   2.454   1_545  S
Cd188       O193   2.434       .  S
Cd188       O189   2.480       .  S
Cd188       O192   2.485   1_545  S
Cd188       O190   2.467       .  S
C191        O195   1.267   1_545  A
C191       C1885   1.472       .  S
O196        C199   1.272       .  A
O196       Cd201   2.492       .  S
C197        O206   1.263       .  A
C197        O202   1.271       .  A
C197       C1878   1.477       .  S
O198        C204   1.270       .  A
O198       Cd201   2.491       .  S
C199        O207   1.264       .  A
C199       C1865   1.479       .  S
C200        O205   1.267       .  A
C200        O203   1.265       .  A
C200       C1849   1.477       .  S
Cd201       O208   2.417       .  S
Cd201       O207   2.447       .  S
Cd201       O206   2.440       .  S
Cd201       O202   2.498       .  S
Cd201       O205   2.483       .  S
Cd201       O203   2.459       .  S
C204        O208   1.263       .  A
C204       C1853   1.472       .  S
O209        C212   1.271       .  A
O209       Cd214   2.474       .  S
C210        O219   1.261       .  A
C210        O215   1.267       .  A
C210       C1854   1.471       .  S
O211        C217   1.270       .  A
O211       Cd214   2.500       .  S
C212        O220   1.267       .  A
C212       C1845   1.480       .  S
C213        O218   1.266       .  A
C213        O216   1.267       .  A
C213       C1841   1.482       .  S
Cd214       O221   2.413       .  S
Cd214       O220   2.455       .  S
Cd214       O219   2.429       .  S
Cd214       O215   2.487       .  S
Cd214       O218   2.440       .  S
Cd214       O216   2.508       .  S
C217        O221   1.263       .  A
C217       C1874   1.473       .  S
O222        C225   1.273       .  A
O222       Cd227   2.490       .  S
C223        O232   1.263       .  A
C223        O228   1.274       .  A
C223       C1894   1.475       .  S
O224        C230   1.272       .  A
O224       Cd227   2.491       .  S
C225        O233   1.265       .  A
C225       C1846   1.480       .  S
C226        O231   1.269       .  A
C226        O229   1.267       .  A
C226       C1837   1.476       .  S
Cd227       O234   2.406       .  S
Cd227       O233   2.443       .  S
Cd227       O232   2.425       .  S
Cd227       O228   2.482       .  S
Cd227       O231   2.469       .  S
Cd227       O229   2.465       .  S
C230        O234   1.264       .  A
C230       C1862   1.473       .  S
O235        C238   1.268       .  A
O235       Cd240   2.461       .  S
C236        O245   1.262       .  A
C236        O241   1.270       .  A
C236       C1825   1.472       .  S
O237        C243   1.269       .  A
O237       Cd240   2.477       .  S
C238        O246   1.266       .  A
C238       C1829   1.470       .  S
C239        O244   1.267       .  A
C239        O242   1.263       .  A
C239       C1821   1.473       .  S
Cd240       O247   2.425       .  S
Cd240       O246   2.441       .  S
Cd240       O245   2.425       .  S
Cd240       O241   2.497       .  S
Cd240       O244   2.476       .  S
Cd240       O242   2.445       .  S
C243        O247   1.264       .  A
C243       C1833   1.472       .  S
O248        C251   1.268       .  A
O248       Cd253   2.457       .  S
C249        O258   1.265       .  A
C249        O254   1.265       .  A
C249       C1813   1.471       .  S
O250        C256   1.261       .  A
O250       Cd253   2.458       .  S
C251        O259   1.265       .  A
C251       C1830   1.469       .  S
C252        O257   1.265       .  A
C252        O255   1.262       .  A
C252       C1898   1.472       .  S
Cd253       O260   2.444       .  S
Cd253       O259   2.438       .  S
Cd253       O258   2.466       .  S
Cd253       O254   2.464       .  S
Cd253       O257   2.487       .  S
Cd253       O255   2.439       .  S
C256        O260   1.266       .  A
C256       C1817   1.469       .  S
O261        C264   1.269       .  A
O261       Cd266   2.466       .  S
C262        O271   1.266       .  A
C262        O267   1.267       .  A
C262       C1834   1.471       .  S
O263        C269   1.269       .  A
O263       Cd266   2.505       .  S
C264        O272   1.264       .  A
C264       C1806   1.476       .  S
C265        O270   1.267       .  A
C265        O268   1.264       .  A
C265       C1850   1.476       .  S
Cd266       O273   2.407       .  S
Cd266       O272   2.454       .  S
Cd266       O271   2.442       .  S
Cd266       O267   2.462       .  S
Cd266       O270   2.475       .  S
Cd266       O268   2.463       .  S
C269        O273   1.262       .  A
C269       C1810   1.473       .  S
O274        C277   1.272       .  A
O274       Cd279   2.477       .  S
C275        O284   1.260       .  A
C275        O280   1.271       .  A
C275       C1801   1.472       .  S
O276        C282   1.270       .  A
O276       Cd279   2.490       .  S
C277        O285   1.266       .  A
C277       C1805   1.476       .  S
C278        O283   1.268       .  A
C278        O281   1.268   1_565  A
C278       C1797   1.479       .  S
Cd279       O286   2.416       .  S
Cd279       O285   2.446       .  S
Cd279       O284   2.426       .  S
Cd279       O280   2.485       .  S
Cd279       O283   2.431   1_545  S
Cd279       O281   2.493       .  S
C282        O286   1.264       .  A
C282       C1814   1.473       .  S
O287        C290   1.268       .  A
O287       Cd292   2.469       .  S
C288        O297   1.264       .  A
C288        O293   1.267       .  A
C288       C1809   1.469       .  S
O289        C295   1.265       .  A
O289       Cd292   2.456       .  S
C290        O298   1.266       .  A
C290       C1794   1.474       .  S
C291        O296   1.266       .  A
C291        O294   1.262       .  A
C291       C1789   1.475       .  S
Cd292       O299   2.478       .  S
Cd292       O298   2.453       .  S
Cd292       O297   2.444       .  S
Cd292       O293   2.462       .  S
Cd292       O296   2.486       .  S
Cd292       O294   2.464       .  S
C295        O299   1.262       .  A
C295       C1826   1.475       .  S
O300        C303   1.270       .  A
O300       Cd305   2.450       .  S
C301        O310   1.263       .  A
C301        O306   1.272       .  A
C301       C1818   1.467       .  S
O302        C308   1.274       .  A
O302       Cd305   2.490       .  S
C303        O311   1.268       .  A
C303       C1793   1.472       .  S
C304        O309   1.271       .  A
C304        O307   1.265       .  A
C304       C1785   1.477   1_455  S
Cd305       O312   2.405       .  S
Cd305       O311   2.442       .  S
Cd305       O310   2.410       .  S
Cd305       O306   2.472       .  S
Cd305       O309   2.482       .  S
Cd305       O307   2.427       .  S
C308        O312   1.262       .  A
C308       C1802   1.470       .  S
O313        C316   1.271       .  A
O313       Cd318   2.455       .  S
C314        O323   1.264       .  A
C314        O319   1.268       .  A
C314       C1773   1.465       .  S
O315        C321   1.260       .  A
O315       Cd318   2.464       .  S
C316        O324   1.265       .  A
C316       C1777   1.472       .  S
C317        O322   1.266       .  A
C317        O320   1.263       .  A
C317       C1769   1.472       .  S
Cd318       O325   2.471       .  S
Cd318       O324   2.436       .  S
Cd318       O323   2.413       .  S
Cd318       O319   2.466       .  S
Cd318       O322   2.472       .  S
Cd318       O320   2.458       .  S
C321        O325   1.266       .  A
C321       C1781   1.473       .  S
O326        C329   1.270       .  A
O326       Cd331   2.474       .  S
C327        O336   1.265       .  A
C327        O332   1.267       .  A
C327       C1761   1.470       .  S
O328        C334   1.270       .  A
O328       Cd331   2.508       .  S
C329        O337   1.262       .  A
C329       C1778   1.472       .  S
C330        O335   1.267       .  A
C330        O333   1.265       .  A
C330       C1838   1.477   1_554  S
Cd331       O338   2.416       .  S
Cd331       O337   2.439       .  S
Cd331       O336   2.440       .  S
Cd331       O332   2.468       .  S
Cd331       O335   2.481       .  S
Cd331       O333   2.465       .  S
C334        O338   1.262       .  A
C334       C1766   1.476       .  S
O339        C342   1.269       .  A
O339       Cd344   2.468       .  S
C340        O349   1.263       .  A
C340        O345   1.272       .  A
C340       C1754   1.471       .  S
O341        C347   1.266       .  A
O341       Cd344   2.401       .  S
C342        O350   1.266       .  A
C342       C1758   1.477       .  S
C343        O348   1.270       .  A
C343        O346   1.264   1_556  A
C343       C1750   1.478   1_545  S
Cd344       O351   2.483       .  S
Cd344       O350   2.474       .  S
Cd344       O349   2.423       .  S
Cd344       O345   2.488       .  S
Cd344       O348   2.484   1_554  S
Cd344       O346   2.447       .  S
C347        O351   1.272       .  A
C347       C1762   1.471       .  S
O352        C355   1.270       .  A
O352       Cd357   2.478       .  S
C353        O362   1.262       .  A
C353        O358   1.270       .  A
C353       C1782   1.471       .  S
O354        C360   1.272       .  A
O354       Cd357   2.493       .  S
C355        O363   1.267       .  A
C355       C1757   1.479       .  S
C356        O361   1.269       .  A
C356        O359   1.265       .  A
C356       C1741   1.479       .  S
Cd357       O364   2.412       .  S
Cd357       O363   2.446       .  S
Cd357       O362   2.431       .  S
Cd357       O358   2.487       .  S
Cd357       O361   2.485       .  S
Cd357       O359   2.455       .  S
C360        O364   1.261       .  A
C360       C1745   1.468       .  S
O365        C368   1.271       .  A
O365       Cd370   2.471       .  S
C366        O375   1.264       .  A
C366        O371   1.271       .  A
C366       C1737   1.475       .  S
O367        C373   1.269       .  A
O367       Cd370   2.469       .  S
C368        O376   1.263       .  A
C368       C1746   1.471       .  S
C369        O374   1.270       .  A
C369        O372   1.263       .  A
C369       C1774   1.467       .  S
Cd370       O377   2.443       .  S
Cd370       O376   2.426       .  S
Cd370       O375   2.446       .  S
Cd370       O371   2.473       .  S
Cd370       O374   2.482       .  S
Cd370       O372   2.394       .  S
C373        O377   1.265       .  A
C373       C1733   1.472       .  S
O378        C381   1.270       .  A
O378       Cd383   2.480       .  S
C379        O388   1.266       .  A
C379        O384   1.268       .  A
C379       C1765   1.472       .  S
O380        C386   1.266       .  A
O380       Cd383   2.458       .  S
C381        O389   1.263       .  A
C381       C1738   1.475       .  S
C382        O387   1.266       .  A
C382        O385   1.262   1_565  A
C382       C1730   1.478       .  S
Cd383       O390   2.475       .  S
Cd383       O389   2.451       .  S
Cd383       O388   2.462       .  S
Cd383       O384   2.455       .  S
Cd383       O387   2.499   1_545  S
Cd383       O385   2.473       .  S
C386        O390   1.262       .  A
C386       C1753   1.474       .  S
O391        C394   1.269       .  A
O391       Cd396   2.510       .  S
C392        O401   1.265       .  A
C392        O397   1.267       .  A
C392       C1717   1.469       .  S
O393        C399   1.264       .  A
O393       Cd396   2.473       .  S
C394        O402   1.262       .  A
C394       C1721   1.480       .  S
C395        O400   1.265       .  A
C395        O398   1.261       .  A
C395       C1713   1.481       .  S
Cd396       O403   2.439       .  S
Cd396       O402   2.447       .  S
Cd396       O401   2.450       .  S
Cd396       O397   2.454       .  S
Cd396       O400   2.507       .  S
Cd396       O398   2.476       .  S
C399        O403   1.265       .  A
C399       C1725   1.472       .  S
O404        C407   1.263       .  A
O404       Cd409   2.441       .  S
C405        O414   1.265       .  A
C405        O410   1.267       .  A
C405       C1722   1.476       .  S
O406        C412   1.266   1_455  A
O406       Cd409   2.505   1_455  S
C407        O415   1.266       .  A
C407       C1705   1.478       .  S
C408        O413   1.265       .  A
C408        O411   1.268       .  A
C408       C1710   1.469       .  S
Cd409       O416   2.451       .  S
Cd409       O415   2.539       .  S
Cd409       O414   2.481       .  S
Cd409       O410   2.468       .  S
Cd409       O413   2.431       .  S
Cd409       O411   2.464       .  S
C412        O416   1.262       .  A
C412       C1701   1.478   1_655  S
O417        C420   1.260       .  A
O417       Cd422   2.445       .  S
C418        O427   1.264       .  A
C418        O423   1.266       .  A
C418       C1693   1.462       .  S
O419        C425   1.266   1_556  A
O419       Cd422   2.418   1_556  S
C420        O428   1.268       .  A
C420       C1698   1.479       .  S
C421        O426   1.267       .  A
C421        O424   1.261       .  A
C421       C1958   1.480   1_554  S
Cd422       O429   2.504       .  S
Cd422       O428   2.520       .  S
Cd422       O427   2.438       .  S
Cd422       O423   2.441       .  S
Cd422       O426   2.502       .  S
Cd422       O424   2.465       .  S
C425        O429   1.265       .  A
C425       C1706   1.472   1_554  S
O430        C433   1.271       .  A
O430       Cd435   2.457       .  S
C431        O440   1.264       .  A
C431        O436   1.272       .  A
C431       C1726   1.469       .  S
O432        C438   1.275       .  A
O432       Cd435   2.497       .  S
C433        O441   1.268       .  A
C433       C1697   1.475       .  S
C434        O439   1.271       .  A
C434        O437   1.265       .  A
C434       C1742   1.479       .  S
Cd435       O442   2.406       .  S
Cd435       O441   2.443       .  S
Cd435       O440   2.423       .  S
Cd435       O436   2.468       .  S
Cd435       O439   2.483       .  S
Cd435       O437   2.452       .  S
C438        O442   1.262       .  A
C438       C1689   1.471       .  S
O443        C446   1.273       .  A
O443       Cd448   2.503       .  S
C444        O453   1.263       .  A
C444        O449   1.274       .  A
C444       C1690   1.473       .  S
O445        C451   1.272       .  A
O445       Cd448   2.503       .  S
C446        O454   1.264       .  A
C446       C1685   1.481       .  S
C447        O452   1.269       .  A
C447        O450   1.266       .  A
C447       C1681   1.482       .  S
Cd448       O455   2.397       .  S
Cd448       O454   2.446       .  S
Cd448       O453   2.418       .  S
Cd448       O449   2.485       .  S
Cd448       O452   2.483       .  S
Cd448       O450   2.479       .  S
C451        O455   1.263       .  A
C451       C1718   1.473       .  S
O456        C459   1.272       .  A
O456       Cd461   2.480       .  S
C457        O466   1.264       .  A
C457        O462   1.269       .  A
C457       C1709   1.471       .  S
O458        C464   1.270       .  A
O458       Cd461   2.511       .  S
C459        O467   1.265       .  A
C459       C1686   1.481       .  S
C460        O465   1.267       .  A
C460        O463   1.267       .  A
C460       C1677   1.477       .  S
Cd461       O468   2.363       .  S
Cd461       O467   2.447       .  S
Cd461       O466   2.417       .  S
Cd461       O462   2.477       .  S
Cd461       O465   2.462       .  S
Cd461       O463   2.472       .  S
C464        O468   1.260       .  A
C464       C1694   1.469       .  S
O469        C472   1.272       .  A
O469       Cd474   2.492       .  S
C470        O479   1.262       .  A
C470        O475   1.270       .  A
C470       C1665   1.475       .  S
O471        C477   1.268       .  A
O471       Cd474   2.486       .  S
C472        O480   1.265       .  A
C472       C1669   1.481       .  S
C473        O478   1.267       .  A
C473        O476   1.266       .  A
C473       C1714   1.480       .  S
Cd474       O481   2.394       .  S
Cd474       O480   2.460       .  S
Cd474       O479   2.428       .  S
Cd474       O475   2.496       .  S
Cd474       O478   2.479       .  S
Cd474       O476   2.473       .  S
C477        O481   1.262       .  A
C477       C1673   1.468       .  S
O482        C485   1.272       .  A
O482       Cd487   2.493       .  S
C483        O492   1.263       .  A
C483        O488   1.272       .  A
C483       C1657   1.469       .  S
O484        C490   1.270       .  A
O484       Cd487   2.495       .  S
C485        O493   1.265       .  A
C485       C1670   1.480       .  S
C486        O491   1.268       .  A
C486        O489   1.266       .  A
C486       C1786   1.474   1_655  S
Cd487       O494   2.413       .  S
Cd487       O493   2.443       .  S
Cd487       O492   2.418       .  S
Cd487       O488   2.471       .  S
Cd487       O491   2.461       .  S
Cd487       O489   2.465       .  S
C490        O494   1.263       .  A
C490       C1661   1.473       .  S
O495        C498   1.268       .  A
O495       Cd500   2.469       .  S
C496        O505   1.266       .  A
C496        O501   1.266       .  A
C496       C1649   1.479       .  S
O497        C503   1.269       .  A
O497       Cd500   2.479       .  S
C498        O506   1.266       .  A
C498       C1653   1.476       .  S
C499        O504   1.268       .  A
C499        O502   1.261       .  A
C499       C1734   1.475       .  S
Cd500       O507   2.442       .  S
Cd500       O506   2.473       .  S
Cd500       O505   2.514       .  S
Cd500       O501   2.450       .  S
Cd500       O504   2.499       .  S
Cd500       O502   2.451       .  S
C503        O507   1.265       .  A
C503       C1666   1.473       .  S
O508        C511   1.262       .  A
O508       Cd513   2.442       .  S
C509        O518   1.265       .  A
C509        O514   1.268       .  A
C509       C1662   1.470       .  S
O510        C516   1.265       .  A
O510       Cd513   2.432       .  S
C511        O519   1.269       .  A
C511       C1654   1.478       .  S
C512        O517   1.265       .  A
C512        O515   1.261       .  A
C512       C1942   1.476   1_545  S
Cd513       O520   2.481       .  S
Cd513       O519   2.498       .  S
Cd513       O518   2.443       .  S
Cd513       O514   2.462       .  S
Cd513       O517   2.492       .  S
Cd513       O515   2.474       .  S
C516        O520   1.264       .  A
C516       C1645   1.474       .  S
O521        C524   1.269       .  A
O521       Cd526   2.503       .  S
C522        O531   1.267       .  A
C522        O527   1.269       .  A
C522       C1642   1.474       .  S
O523        C529   1.268       .  A
O523       Cd526   2.479       .  S
C524        O532   1.261       .  A
C524       C1646   1.471       .  S
C525        O530   1.272       .  A
C525        O528   1.261       .  A
C525       C1658   1.468       .  S
Cd526       O533   2.452       .  S
Cd526       O532   2.429       .  S
Cd526       O531   2.465       .  S
Cd526       O527   2.450       .  S
Cd526       O530   2.485       .  S
Cd526       O528   2.418       .  S
C529        O533   1.264       .  A
C529       C1637   1.477       .  S
O534        C537   1.268       .  A
O534       Cd539   2.528       .  S
C535        O544   1.266       .  A
C535        O540   1.265       .  A
C535       C1674   1.464       .  S
O536        C542   1.268       .  A
O536       Cd539   2.442       .  S
C537        O545   1.259       .  A
C537       C1641   1.480       .  S
C538        O543   1.270       .  A
C538        O541   1.262       .  A
C538       C1633   1.482       .  S
Cd539       O546   2.486       .  S
Cd539       O545   2.434       .  S
Cd539       O544   2.443       .  S
Cd539       O540   2.437       .  S
Cd539       O543   2.523       .  S
Cd539       O541   2.441       .  S
C542        O546   1.264       .  A
C542       C1650   1.473       .  S
O547        C550   1.269       .  A
O547       Cd552   2.478       .  S
C548        O557   1.263       .  A
C548        O553   1.266       .  A
C548       C1621   1.475       .  S
O549        C555   1.269       .  A
O549       Cd552   2.495       .  S
C550        O558   1.266       .  A
C550       C1625   1.478       .  S
C551        O556   1.267       .  A
C551        O554   1.265       .  A
C551       C1617   1.478       .  S
Cd552       O559   2.398       .  S
Cd552       O558   2.464       .  S
Cd552       O557   2.463       .  S
Cd552       O553   2.482       .  S
Cd552       O556   2.477       .  S
Cd552       O554   2.471       .  S
C555        O559   1.262       .  A
C555       C1629   1.473       .  S
O560        C563   1.272       .  A
O560       Cd565   2.467       .  S
C561        O570   1.263       .  A
C561        O566   1.274       .  A
C561       C1610   1.472       .  S
O562        C568   1.274       .  A
O562       Cd565   2.500       .  S
C563        O571   1.268       .  A
C563       C1626   1.479       .  S
C564        O569   1.271       .  A
C564        O567   1.266       .  A
C564       C1858   1.479       .  S
Cd565       O572   2.412       .  S
Cd565       O571   2.452       .  S
Cd565       O570   2.402       .  S
Cd565       O566   2.508       .  S
Cd565       O569   2.480       .  S
Cd565       O567   2.446       .  S
C568        O572   1.263       .  A
C568       C1614   1.473       .  S
O573        C576   1.270       .  A
O573       Cd578   2.486       .  S
C574        O583   1.265       .  A
C574        O579   1.268       .  A
C574       C1601   1.468       .  S
O575        C581   1.269       .  A
O575       Cd578   2.508       .  S
C576        O584   1.265       .  A
C576       C1605   1.481       .  S
C577        O582   1.264       .  A
C577        O580   1.269       .  A
C577       C1962   1.483       .  S
Cd578       O585   2.432       .  S
Cd578       O584   2.459       .  S
Cd578       O583   2.411       .  S
Cd578       O579   2.467       .  S
Cd578       O582   2.472       .  S
Cd578       O580   2.502       .  S
C581        O585   1.262       .  A
C581       C1622   1.477       .  S
O586        C589   1.274       .  A
O586       Cd591   2.489       .  S
C587        O596   1.263       .  A
C587        O592   1.273       .  A
C587       C1613   1.476       .  S
O588        C594   1.262       .  A
O588       Cd591   2.394       .  S
C589        O597   1.266       .  A
C589       C1606   1.481       .  S
C590        O595   1.270       .  A
C590        O593   1.267       .  A
C590       C1749   1.477       .  S
Cd591       O598   2.489       .  S
Cd591       O597   2.444       .  S
Cd591       O596   2.433       .  S
Cd591       O592   2.486       .  S
Cd591       O595   2.466       .  S
Cd591       O593   2.458       .  S
C594        O598   1.274       .  A
C594       C1597   1.466       .  S
O599        C602   1.267       .  A
O599       Cd604   2.475       .  S
C600        O609   1.264       .  A
C600        O605   1.265       .  A
C600       C1630   1.469       .  S
O601        C607   1.267       .  A
O601       Cd604   2.483       .  S
C602        O610   1.265       .  A
C602       C1593   1.477       .  S
C603        O608   1.267       .  A
C603        O606   1.262       .  A
C603       C1589   1.475       .  S
Cd604       O611   2.424       .  S
Cd604       O610   2.466       .  S
Cd604       O609   2.470       .  S
Cd604       O605   2.457       .  S
Cd604       O608   2.495       .  S
Cd604       O606   2.435       .  S
C607        O611   1.262       .  A
C607       C1602   1.468       .  S
O612        C615   1.268       .  A
O612       Cd617   2.481       .  S
C613        O622   1.265       .  A
C613        O618   1.270       .  A
C613       C1598   1.473       .  S
O614        C620   1.263       .  A
O614       Cd617   2.492       .  S
C615        O623   1.264       .  A
C615       C1594   1.477       .  S
C616        O621   1.266       .  A
C616        O619   1.262       .  A
C616       C1585   1.478       .  S
Cd617       O624   2.446       .  S
Cd617       O623   2.459       .  S
Cd617       O622   2.449       .  S
Cd617       O618   2.455       .  S
Cd617       O621   2.493       .  S
Cd617       O619   2.478       .  S
C620        O624   1.265       .  A
C620       C1609   1.478       .  S
O625        C628   1.268       .  A
O625       Cd630   2.493       .  S
C626        O635   1.264       .  A
C626        O631   1.270       .  A
C626       C1573   1.475       .  S
O627        C633   1.262       .  A
O627       Cd630   2.445       .  S
C628        O636   1.264       .  A
C628       C1578   1.481       .  S
C629        O634   1.266       .  A
C629        O632   1.263       .  A
C629       C1770   1.474       .  S
Cd630       O637   2.494       .  S
Cd630       O636   2.467       .  S
Cd630       O635   2.461       .  S
Cd630       O631   2.456       .  S
Cd630       O634   2.487       .  S
Cd630       O632   2.455       .  S
C633        O637   1.264       .  A
C633       C1581   1.477       .  S
O638        C641   1.269       .  A
O638       Cd643   2.479       .  S
C639        O648   1.261       .  A
C639        O644   1.271       .  A
C639       C1565   1.472       .  S
O640        C646   1.271       .  A
O640       Cd643   2.484       .  S
C641        O649   1.265       .  A
C641       C1577   1.479       .  S
C642        O647   1.268       .  A
C642        O645   1.264       .  A
C642       C1561   1.476       .  S
Cd643       O650   2.410       .  S
Cd643       O649   2.473       .  S
Cd643       O648   2.420       .  S
Cd643       O644   2.508       .  S
Cd643       O647   2.486       .  S
Cd643       O645   2.450       .  S
C646        O650   1.265       .  A
C646       C1569   1.471       .  S
O651        C654   1.270       .  A
O651       Cd656   2.482       .  S
C652        O661   1.262       .  A
C652        O657   1.270       .  A
C652       C1553   1.474       .  S
O653        C659   1.264       .  A
O653       Cd656   2.459       .  S
C654        O662   1.265       .  A
C654       C1557   1.477       .  S
C655        O660   1.267       .  A
C655        O658   1.263       .  A
C655       C1550   1.477       .  S
Cd656       O663   2.484       .  S
Cd656       O662   2.455       .  S
Cd656       O661   2.449       .  S
Cd656       O657   2.470       .  S
Cd656       O660   2.489       .  S
Cd656       O658   2.460       .  S
C659        O663   1.261       .  A
C659       C1566   1.476       .  S
O664        C667   1.269       .  A
O664       Cd669   2.477       .  S
C665        O674   1.261       .  A
C665        O670   1.270       .  A
C665       C1582   1.473       .  S
O666        C672   1.272       .  A
O666       Cd669   2.485       .  S
C667        O675   1.266       .  A
C667       C1558   1.477       .  S
C668        O673   1.268       .  A
C668        O671   1.265       .  A
C668       C1634   1.478       .  S
Cd669       O676   2.420       .  S
Cd669       O675   2.463       .  S
Cd669       O674   2.437       .  S
Cd669       O670   2.508       .  S
Cd669       O673   2.474       .  S
Cd669       O671   2.477       .  S
C672        O676   1.265       .  A
C672       C1545   1.473       .  S
O677        C680   1.272       .  A
O677       Cd682   2.495       .  S
C678        O687   1.266       .  A
C678        O683   1.270       .  A
C678       C1546   1.473       .  S
O679        C685   1.273       .  A
O679       Cd682   2.510       .  S
C680        O688   1.264       .  A
C680       C1541   1.481       .  S
C681        O686   1.269       .  A
C681        O684   1.267       .  A
C681       C1682   1.483       .  S
Cd682       O689   2.392       .  S
Cd682       O688   2.444       .  S
Cd682       O687   2.431       .  S
Cd682       O683   2.484       .  S
Cd682       O686   2.489       .  S
Cd682       O684   2.480       .  S
C685        O689   1.261       .  A
C685       C1574   1.469       .  S
O690        C693   1.272       .  A
O690       Cd695   2.481       .  S
C691        O700   1.265       .  A
C691        O696   1.270       .  A
C691       C1570   1.472       .  S
O692        C698   1.260       .  A
O692       Cd695   2.401       .  S
C693        O701   1.265       .  A
C693       C1542   1.480       .  S
C694        O699   1.268       .  A
C694        O697   1.266       .  A
C694       C1537   1.479       .  S
Cd695       O702   2.504       .  S
Cd695       O701   2.444       .  S
Cd695       O700   2.432       .  S
Cd695       O696   2.478       .  S
Cd695       O699   2.479       .  S
Cd695       O697   2.472       .  S
C698        O702   1.273       .  A
C698       C1554   1.469       .  S
O703        C706   1.265       .  A
O703       Cd708   2.496       .  S
C704        O713   1.267       .  A
C704        O709   1.265       .  A
C704       C1525   1.478       .  S
O705        C711   1.266       .  A
O705       Cd708   2.439       .  S
C706        O714   1.265       .  A
C706       C1529   1.476       .  S
C707        O712   1.261       .  A
C707        O710   1.266       .  A
C707       C1822   1.472       .  S
Cd708       O715   2.472       .  S
Cd708       O714   2.465       .  S
Cd708       O713   2.518       .  S
Cd708       O709   2.444       .  S
Cd708       O712   2.456       .  S
Cd708       O710   2.488       .  S
C711        O715   1.267       .  A
C711       C1533   1.471       .  S
O716        C719   1.262       .  A
O716       Cd721   2.451       .  S
C717        O726   1.266       .  A
C717        O722   1.267       .  A
C717       C1517   1.466       .  S
O718        C724   1.264       .  A
O718       Cd721   2.466       .  S
C719        O727   1.267       .  A
C719       C1530   1.482       .  S
C720        O725   1.264       .  A
C720        O723   1.259       .  A
C720       C1513   1.474       .  S
Cd721       O728   2.443       .  S
Cd721       O727   2.515       .  S
Cd721       O726   2.442       .  S
Cd721       O722   2.450       .  S
Cd721       O725   2.496       .  S
Cd721       O723   2.459       .  S
C724        O728   1.266       .  A
C724       C1521   1.471       .  S
O729        C732   1.271       .  A
O729       Cd734   2.483       .  S
C730        O739   1.265       .  A
C730        O735   1.267       .  A
C730       C1505   1.472       .  S
O731        C737   1.267       .  A
O731       Cd734   2.505       .  S
C732        O740   1.264       .  A
C732       C1509   1.477       .  S
C733        O738   1.265       .  A
C733        O736   1.263       .  A
C733       C1501   1.473       .  S
Cd734       O741   2.402       .  S
Cd734       O740   2.446       .  S
Cd734       O739   2.447       .  S
Cd734       O735   2.473       .  S
Cd734       O738   2.481       .  S
Cd734       O736   2.469       .  S
C737        O741   1.260       .  A
C737       C1518   1.470       .  S
O742        C745   1.271       .  A
O742       Cd747   2.469       .  S
C743        O752   1.264       .  A
C743        O748   1.269       .  A
C743       C1534   1.473       .  S
O744        C750   1.270       .  A
O744       Cd747   2.489       .  S
C745        O753   1.266       .  A
C745       C1510   1.477       .  S
C746        O751   1.269       .  A
C746        O749   1.266       .  A
C746       C1493   1.480       .  S
Cd747       O754   2.405       .  S
Cd747       O753   2.451       .  S
Cd747       O752   2.427       .  S
Cd747       O748   2.475       .  S
Cd747       O751   2.486       .  S
Cd747       O749   2.468       .  S
C750        O754   1.262       .  A
C750       C1497   1.472       .  S
O755        C758   1.272       .  A
O755       Cd760   2.516       .  S
C756        O765   1.265       .  A
C756        O761   1.264       .  A
C756       C1498   1.469       .  S
O757        C763   1.267       .  A
O757       Cd760   2.423       .  S
C758        O766   1.263       .  A
C758       C1489   1.479       .  S
C759        O764   1.263       .  A
C759        O762   1.271       .  A
C759       C1842   1.475       .  S
Cd760       O767   2.488       .  S
Cd760       O766   2.408       .  S
Cd760       O765   2.456       .  S
Cd760       O761   2.464       .  S
Cd760       O764   2.412       .  S
Cd760       O762   2.519       .  S
C763        O767   1.268       .  A
C763       C1526   1.474       .  S
O768        C771   1.267       .  A
O768       Cd773   2.455       .  S
C769        O778   1.262       .  A
C769        O774   1.270       .  A
C769       C1522   1.469       .  S
O770        C776   1.270       .  A
O770       Cd773   2.485       .  S
C771        O779   1.266       .  A
C771       C1490   1.474       .  S
C772        O777   1.269       .  A
C772        O775   1.263       .  A
C772       C1562   1.476       .  S
Cd773       O780   2.420       .  S
Cd773       O779   2.475       .  S
Cd773       O778   2.433       .  S
Cd773       O774   2.480       .  S
Cd773       O777   2.486       .  S
Cd773       O775   2.441       .  S
C776        O780   1.265       .  A
C776       C1506   1.473       .  S
O781        C784   1.266       .  A
O781       Cd786   2.456       .  S
C782        O791   1.263       .  A
C782        O787   1.265       .  A
C782       C1477   1.467       .  S
O783        C789   1.266       .  A
O783       Cd786   2.489       .  S
C784        O792   1.267       .  A
C784       C1481   1.475       .  S
C785        O790   1.267       .  A
C785        O788   1.263       .  A
C785       C1473   1.476       .  S
Cd786       O793   2.446       .  S
Cd786       O792   2.470       .  S
Cd786       O791   2.456       .  S
Cd786       O787   2.456       .  S
Cd786       O790   2.485       .  S
Cd786       O788   2.456       .  S
C789        O793   1.262       .  A
C789       C1485   1.474       .  S
O794        C797   1.267       .  A
O794       Cd799   2.466       .  S
C795        O804   1.263       .  A
C795        O800   1.269       .  A
C795       C1465   1.471       .  S
O796        C802   1.263       .  A
O796       Cd799   2.431       .  S
C797        O805   1.266       .  A
C797       C1482   1.476       .  S
C798        O803   1.265       .  A
C798        O801   1.262       .  A
C798       C1638   1.477       .  S
Cd799       O806   2.486       .  S
Cd799       O805   2.466       .  S
Cd799       O804   2.415       .  S
Cd799       O800   2.479       .  S
Cd799       O803   2.496       .  S
Cd799       O801   2.467       .  S
C802        O806   1.266       .  A
C802       C1469   1.473       .  S
O807        C810   1.268       .  A
O807       Cd812   2.481       .  S
C808        O817   1.265       .  A
C808        O813   1.268       .  A
C808       C1458   1.467       .  S
O809        C815   1.272       .  A
O809       Cd812   2.505       .  S
C810        O818   1.264       .  A
C810       C1461   1.477       .  S
C811        O816   1.271       .  A
C811        O814   1.261       .  A
C811       C2002   1.474       .  S
Cd812       O819   2.376       .  S
Cd812       O818   2.468       .  S
Cd812       O817   2.444       .  S
Cd812       O813   2.451       .  S
Cd812       O816   2.503       .  S
Cd812       O814   2.430       .  S
C815        O819   1.263       .  A
C815       C1478   1.470       .  S
O820        C823   1.266       .  A
O820       Cd825   2.480       .  S
C821        O830   1.266       .  A
C821        O826   1.266       .  A
C821       C1470   1.473       .  S
O822        C828   1.269       .  A
O822       Cd825   2.438       .  S
C823        O831   1.262       .  A
C823       C1462   1.475       .  S
C824        O829   1.265       .  A
C824        O827   1.264       .  A
C824       C1918   1.475   1_655  S
Cd825       O832   2.486       .  S
Cd825       O831   2.466       .  S
Cd825       O830   2.459       .  S
Cd825       O826   2.468       .  S
Cd825       O829   2.477       .  S
Cd825       O827   2.475       .  S
C828        O832   1.267       .  A
C828       C1454   1.477       .  S
O833        C836   1.270       .  A
O833       Cd838   2.492       .  S
C834        O843   1.266       .  A
C834        O839   1.268       .  A
C834       C1486   1.473       .  S
O835        C841   1.270       .  A
O835       Cd838   2.521       .  S
C836        O844   1.265       .  A
C836       C1449   1.482       .  S
C837        O842   1.266       .  A
C837        O840   1.265       .  A
C837       C1618   1.477       .  S
Cd838       O845   2.388       .  S
Cd838       O844   2.456       .  S
Cd838       O843   2.445       .  S
Cd838       O839   2.469       .  S
Cd838       O842   2.486       .  S
Cd838       O840   2.473       .  S
C841        O845   1.260       .  A
C841       C1457   1.472       .  S
O846        C849   1.269       .  A
O846       Cd851   2.501       .  S
C847        O856   1.263       .  A
C847        O852   1.265       .  A
C847       C1453   1.478       .  S
O848        C854   1.266       .  A
O848       Cd851   2.458       .  S
C849        O857   1.264       .  A
C849       C1450   1.483       .  S
C850        O855   1.262       .  A
C850        O853   1.267       .  A
C850       C1798   1.475       .  S
Cd851       O858   2.450       .  S
Cd851       O857   2.476       .  S
Cd851       O856   2.510       .  S
Cd851       O852   2.460       .  S
Cd851       O855   2.437       .  S
Cd851       O853   2.524       .  S
C854        O858   1.266       .  A
C854       C1466   1.468       .  S
O859        C862   1.271       .  A
O859       Cd864   2.536       .  S
C860        O869   1.266       .  A
C860        O865   1.269       .  A
C860       C1437   1.470       .  S
O861        C867   1.264       .  A
O861       Cd864   2.472       .  S
C862        O870   1.260       .  A
C862       C1441   1.483       .  S
C863        O868   1.263       .  A
C863        O866   1.262       .  A
C863       C1970   1.476       .  S
Cd864       O871   2.434       .  S
Cd864       O870   2.442       .  S
Cd864       O869   2.445       .  S
Cd864       O865   2.465       .  S
Cd864       O868   2.486       .  S
Cd864       O866   2.491       .  S
C867        O871   1.266       .  A
C867       C1445   1.472       .  S
O872        C875   1.271       .  A
O872       Cd877   2.509       .  S
C873        O882   1.266       .  A
C873        O878   1.271       .  A
C873       C1429   1.483       .  S
O874        C880   1.268       .  A
O874       Cd877   2.417       .  S
C875        O883   1.262       .  A
C875       C1442   1.486       .  S
C876        O881   1.266       .  A
C876        O879   1.265       .  A
C876       C1502   1.474       .  S
Cd877       O884   2.426       .  S
Cd877       O883   2.474       .  S
Cd877       O882   2.481       .  S
Cd877       O878   2.463       .  S
Cd877       O881   2.480       .  S
Cd877       O879   2.462       .  S
C880        O884   1.265       .  A
C880       C1433   1.460       .  S
O885        C888   1.266       .  A
O885       Cd890   2.449       .  S
C886        O895   1.262       .  A
C886        O891   1.270       .  A
C886       C1446   1.468       .  S
O887        C893   1.263       .  A
O887       Cd890   2.474       .  S
C888        O896   1.267       .  A
C888       C1421   1.473       .  S
C889        O894   1.266       .  A
C889        O892   1.262       .  A
C889       C1590   1.472       .  S
Cd890       O897   2.446       .  S
Cd890       O896   2.472       .  S
Cd890       O895   2.424       .  S
Cd890       O891   2.486       .  S
Cd890       O894   2.474       .  S
Cd890       O892   2.461       .  S
C893        O897   1.267       .  A
C893       C1425   1.476       .  S
O898        C901   1.266       .  A
O898       Cd903   2.459       .  S
C899        O908   1.266       .  A
C899        O904   1.263       .  A
C899       C1422   1.477       .  S
O900        C906   1.269       .  A
O900       Cd903   2.491       .  S
C901        O909   1.265       .  A
C901       C1417   1.475       .  S
C902        O907   1.270       .  A
C902        O905   1.262       .  A
C902       C1430   1.480       .  S
Cd903       O910   2.477       .  S
Cd903       O909   2.476       .  S
Cd903       O908   2.507       .  S
Cd903       O904   2.440       .  S
Cd903       O907   2.472       .  S
Cd903       O905   2.465       .  S
C906        O910   1.266       .  A
C906       C1413   1.482       .  S
O911        C914   1.272       .  A
O911       Cd916   2.486       .  S
C912        O921   1.262       .  A
C912        O917   1.273       .  A
C912       C1426   1.473       .  S
O913        C919   1.272       .  A
O913       Cd916   2.486       .  S
C914        O922   1.265       .  A
C914       C1409   1.480       .  S
C915        O920   1.269       .  A
C915        O918   1.266       .  A
C915       C1474   1.476       .  S
Cd916       O923   2.406       .  S
Cd916       O922   2.458       .  S
Cd916       O921   2.414       .  S
Cd916       O917   2.505       .  S
Cd916       O920   2.474       .  S
Cd916       O918   2.448       .  S
C919        O923   1.265       .  A
C919       C1438   1.472       .  S
O924        C927   1.270       .  A
O924       Cd929   2.507       .  S
C925        O934   1.264       .  A
C925        O930   1.264       .  A
C925       C1434   1.462       .  S
O926        C932   1.265       .  A
O926       Cd929   2.471       .  S
C927        O935   1.261       .  A
C927       C1410   1.479       .  S
C928        O933   1.267       .  A
C928        O931   1.264       .  A
C928       C1549   1.478       .  S
Cd929       O936   2.465       .  S
Cd929       O935   2.445       .  S
Cd929       O934   2.459       .  S
Cd929       O930   2.414       .  S
Cd929       O933   2.483       .  S
Cd929       O931   2.475       .  S
C932        O936   1.263       .  A
C932       C1418   1.475       .  S
O937        C940   1.273       .  A
O937       Cd942   2.501       .  S
C938        O947   1.263       .  A
C938        O943   1.274       .  A
C938       C1398   1.475       .  S
O939        C945   1.272       .  A
O939       Cd942   2.479       .  S
C940        O948   1.264       .  A
C940       C1401   1.480       .  S
C941        O946   1.268       .  A
C941        O944   1.268       .  A
C941       C1729   1.476       .  S
Cd942       O949   2.393       .  S
Cd942       O948   2.434       .  S
Cd942       O947   2.422       .  S
Cd942       O943   2.498       .  S
Cd942       O946   2.462       .  S
Cd942       O944   2.463       .  S
C945        O949   1.262       .  A
C945       C1405   1.463       .  S
O950        C953   1.271       .  A
O950       Cd955   2.474       .  S
C951        O960   1.265       .  A
C951        O956   1.269       .  A
C951       C1389   1.470       .  S
O952        C958   1.271       .  A
O952       Cd955   2.498       .  S
C953        O961   1.264       .  A
C953       C1402   1.479       .  S
C954        O959   1.268       .  A
C954        O957   1.264       .  A
C954       C1930   1.475       .  S
Cd955       O962   2.391       .  S
Cd955       O961   2.456       .  S
Cd955       O960   2.432       .  S
Cd955       O956   2.463       .  S
Cd955       O959   2.484       .  S
Cd955       O957   2.455       .  S
C958        O962   1.262       .  A
C958       C1393   1.470       .  S
O963        C966   1.269       .  A
O963       Cd968   2.463       .  S
C964        O973   1.265       .  A
C964        O969   1.268       .  A
C964       C1394   1.467       .  S
O965        C971   1.258       .  A
O965       Cd968   2.446       .  S
C966        O974   1.267       .  A
C966       C1382   1.476       .  S
C967        O972   1.269       .  A
C967        O970   1.261       .  A
C967       C1377   1.480       .  S
Cd968       O975   2.517       .  S
Cd968       O974   2.456       .  S
Cd968       O973   2.431       .  S
Cd968       O969   2.454       .  S
Cd968       O972   2.511       .  S
Cd968       O970   2.467       .  S
C971        O975   1.269       .  A
C971       C1385   1.477       .  S
O976        C979   1.269       .  A
O976       Cd981   2.465       .  S
C977        O986   1.265       .  A
C977        O982   1.267       .  A
C977       C1373   1.470       .  S
O978        C984   1.271       .  A
O978       Cd981   2.512       .  S
C979        O987   1.266       .  A
C979       C1381   1.476       .  S
C980        O985   1.269       .  A
C980        O983   1.265       .  A
C980       C1586   1.479       .  S
Cd981       O988   2.434       .  S
Cd981       O987   2.451       .  S
Cd981       O986   2.452       .  S
Cd981       O982   2.466       .  S
Cd981       O985   2.487       .  S
Cd981       O983   2.457       .  S
C984        O988   1.260       .  A
C984       C1397   1.476       .  S
O989        C992   1.271       .  A
O989       Cd994   2.499       .  S
C990        O999   1.267       .  A
C990        O995   1.268       .  A
C990       C1369   1.479       .  S
O991        C997   1.268       .  A
O991       Cd994   2.482       .  S
C992       O1000   1.262       .  A
C992       C1386   1.479       .  S
C993        O998   1.270       .  A
C993        O996   1.264       .  A
C993       C1390   1.471       .  S
Cd994      O1001   2.468       .  S
Cd994      O1000   2.444       .  S
Cd994       O999   2.480       .  S
Cd994       O995   2.470       .  S
Cd994       O998   2.480       .  S
Cd994       O996   2.417       .  S
C997       O1001   1.266       .  A
C997       C1365   1.480       .  S
O1002      C1005   1.268       .  A
O1002     Cd1007   2.479       .  S
C1003      O1012   1.262       .  A
C1003      O1008   1.269       .  A
C1003      C1406   1.469       .  S
O1004      C1010   1.269       .  A
O1004     Cd1007   2.509       .  S
C1005      O1013   1.266       .  A
C1005      C1370   1.479       .  S
C1006      O1011   1.269   1_554  A
C1006      O1009   1.263       .  A
C1006      C1882   1.474   1_554  S
Cd1007     O1014   2.405       .  S
Cd1007     O1013   2.465       .  S
Cd1007     O1012   2.447       .  S
Cd1007     O1008   2.455       .  S
Cd1007     O1011   2.477   1_554  S
Cd1007     O1009   2.445       .  S
C1010      O1014   1.262       .  A
C1010      C1374   1.473       .  S
O1015      C1018   1.266       .  A
O1015     Cd1020   2.508       .  S
C1016      O1025   1.267       .  A
C1016      O1021   1.267       .  A
C1016      C1353   1.477       .  S
O1017      C1023   1.265       .  A
O1017     Cd1020   2.423       .  S
C1018      O1026   1.265       .  A
C1018      C1357   1.483       .  S
C1019      O1024   1.266       .  A
C1019      O1022   1.264       .  A
C1019      C1378   1.475       .  S
Cd1020     O1027   2.438       .  S
Cd1020     O1026   2.474       .  S
Cd1020     O1025   2.467       .  S
Cd1020     O1021   2.439       .  S
Cd1020     O1024   2.482       .  S
Cd1020     O1022   2.461       .  S
C1023      O1027   1.268       .  A
C1023      C1362   1.461       .  S
O1028      C1031   1.265       .  A
O1028     Cd1033   2.471       .  S
C1029      O1038   1.261       .  A
C1029      O1034   1.267       .  A
C1029      C1345   1.475       .  S
O1030      C1036   1.264       .  A
O1030     Cd1033   2.459       .  S
C1031      O1039   1.270       .  A
C1031      C1358   1.486       .  S
C1032      O1037   1.265       .  A
C1032      O1035   1.264       .  A
C1032      C1414   1.481       .  S
Cd1033     O1040   2.444       .  S
Cd1033     O1039   2.502       .  S
Cd1033     O1038   2.462       .  S
Cd1033     O1034   2.483       .  S
Cd1033     O1037   2.490       .  S
Cd1033     O1035   2.489       .  S
C1036      O1040   1.264       .  A
C1036      C1349   1.466       .  S
O1041      C1044   1.266       .  A
O1041     Cd1046   2.464       .  S
C1042      O1051   1.267       .  A
C1042      O1047   1.267       .  A
C1042      C1337   1.472       .  S
O1043      C1049   1.266       .  A
O1043     Cd1046   2.473       .  S
C1044      O1052   1.264       .  A
C1044      C1341   1.469       .  S
C1045      O1050   1.267       .  A
C1045      O1048   1.264       .  A
C1045      C1333   1.476       .  S
Cd1046     O1053   2.467       .  S
Cd1046     O1052   2.442       .  S
Cd1046     O1051   2.452       .  S
Cd1046     O1047   2.449       .  S
Cd1046     O1050   2.501       .  S
Cd1046     O1048   2.430       .  S
C1049      O1053   1.262       .  A
C1049      C1354   1.476       .  S
O1054      C1057   1.266       .  A
O1054     Cd1059   2.427       .  S
C1055      O1064   1.265       .  A
C1055      O1060   1.268       .  A
C1055      C1350   1.470       .  S
O1056      C1062   1.264       .  A
O1056     Cd1059   2.472       .  S
C1057      O1065   1.267       .  A
C1057      C1342   1.471       .  S
C1058      O1063   1.268       .  A
C1058      O1061   1.264       .  A
C1058      C1538   1.478       .  S
Cd1059     O1066   2.478       .  S
Cd1059     O1065   2.482       .  S
Cd1059     O1064   2.427       .  S
Cd1059     O1060   2.465       .  S
Cd1059     O1063   2.482       .  S
Cd1059     O1061   2.469       .  S
C1062      O1066   1.263       .  A
C1062      C1329   1.476       .  S
O1067      C1070   1.267       .  A
O1067     Cd1072   2.472       .  S
C1068      O1077   1.264       .  A
C1068      O1073   1.264       .  A
C1068      C1361   1.463       .  S
O1069      C1075   1.263       .  A
O1069     Cd1072   2.452       .  S
C1070      O1078   1.264       .  A
C1070      C1325   1.475       .  S
C1071      O1076   1.268       .  A
C1071      O1074   1.263       .  A
C1071      C1902   1.474       .  S
Cd1072     O1079   2.471       .  S
Cd1072     O1078   2.453       .  S
Cd1072     O1077   2.465       .  S
Cd1072     O1073   2.407       .  S
Cd1072     O1076   2.480       .  S
Cd1072     O1074   2.452       .  S
C1075      O1079   1.264       .  A
C1075      C1338   1.472       .  S
O1080      C1083   1.268       .  A
O1080     Cd1085   2.472       .  S
C1081      O1090   1.269       .  A
C1081      O1086   1.266       .  A
C1081      C1330   1.479       .  S
O1082      C1088   1.262       .  A
O1082     Cd1085   2.412       .  S
C1083      O1091   1.265       .  A
C1083      C1326   1.475       .  S
C1084      O1089   1.268       .  A
C1084      O1087   1.264       .  A
C1084      C1514   1.474       .  S
Cd1085     O1092   2.504       .  S
Cd1085     O1091   2.450       .  S
Cd1085     O1090   2.481       .  S
Cd1085     O1086   2.445       .  S
Cd1085     O1089   2.481       .  S
Cd1085     O1087   2.445       .  S
C1088      O1092   1.273       .  A
C1088      C1346   1.473       .  S
O1093      C1096   1.267       .  A
O1093     Cd1098   2.436       .  S
C1094      O1103   1.268       .  A
C1094      O1099   1.264       .  A
C1094      C1313   1.479       .  S
O1095      C1101   1.265       .  A
O1095     Cd1098   2.456       .  S
C1096      O1104   1.270       .  A
C1096      C1317   1.482       .  S
C1097      O1102   1.264       .  A
C1097      O1100   1.269       .  A
C1097      C1334   1.472       .  S
Cd1098     O1105   2.418       .  S
Cd1098     O1104   2.505       .  S
Cd1098     O1103   2.534       .  S
Cd1098     O1099   2.419       .  S
Cd1098     O1102   2.435       .  S
Cd1098     O1100   2.485       .  S
C1101      O1105   1.271       .  A
C1101      C1321   1.467       .  S
O1106      C1109   1.265       .  A
O1106     Cd1111   2.458       .  S
C1107      O1116   1.262       .  A
C1107      O1112   1.269       .  A
C1107      C1305   1.471       .  S
O1108      C1114   1.265       .  A
O1108     Cd1111   2.452       .  S
C1109      O1117   1.267       .  A
C1109      C1318   1.479       .  S
C1110      O1115   1.265       .  A
C1110      O1113   1.263       .  A
C1110      C1678   1.478       .  S
Cd1111     O1118   2.452       .  S
Cd1111     O1117   2.503       .  S
Cd1111     O1116   2.431       .  S
Cd1111     O1112   2.495       .  S
Cd1111     O1115   2.491       .  S
Cd1111     O1113   2.472       .  S
C1114      O1118   1.265       .  A
C1114      C1309   1.469       .  S
O1119      C1122   1.270       .  A
O1119     Cd1124   2.510       .  S
C1120      O1129   1.265       .  A
C1120      O1125   1.268       .  A
C1120      C1297   1.477       .  S
O1121      C1127   1.263       .  A
O1121     Cd1124   2.475       .  S
C1122      O1130   1.263       .  A
C1122      C1301   1.482       .  S
C1123      O1128   1.261       .  A
C1123      O1126   1.265       .  A
C1123      C1990   1.482   1_554  S
Cd1124     O1131   2.442       .  S
Cd1124     O1130   2.443       .  S
Cd1124     O1129   2.474       .  S
Cd1124     O1125   2.472       .  S
Cd1124     O1128   2.472       .  S
Cd1124     O1126   2.517       .  S
C1127      O1131   1.265       .  A
C1127      C1306   1.474       .  S
O1132      C1135   1.271       .  A
O1132     Cd1137   2.469       .  S
C1133      O1142   1.261       .  A
C1133      O1138   1.273       .  A
C1133      C1322   1.465       .  S
O1134      C1140   1.272       .  A
O1134     Cd1137   2.506       .  S
C1135      O1143   1.267       .  A
C1135      C1302   1.479       .  S
C1136      O1141   1.270       .  A
C1136      O1139   1.267       .  A
C1136      C1910   1.480       .  S
Cd1137     O1144   2.380       .  S
Cd1137     O1143   2.467       .  S
Cd1137     O1142   2.390       .  S
Cd1137     O1138   2.485       .  S
Cd1137     O1141   2.476       .  S
Cd1137     O1139   2.461       .  S
C1140      O1144   1.263       .  A
C1140      C1293   1.473       .  S
O1145      C1148   1.261       .  A
O1145     Cd1150   2.465       .  S
C1146      O1155   1.265       .  A
C1146      O1151   1.267       .  A
C1146      C1294   1.468       .  S
O1147      C1153   1.265       .  A
O1147     Cd1150   2.435       .  S
C1148      O1156   1.266       .  A
C1148      C1290   1.480       .  S
C1149      O1154   1.261       .  A
C1149      O1152   1.265       .  A
C1149      C1366   1.481       .  S
Cd1150     O1157   2.523       .  S
Cd1150     O1156   2.503       .  S
Cd1150     O1155   2.437       .  S
Cd1150     O1151   2.474       .  S
Cd1150     O1154   2.476       .  S
Cd1150     O1152   2.514       .  S
C1153      O1157   1.264       .  A
C1153      C1314   1.475       .  S
O1158      C1161   1.267       .  A
O1158     Cd1163   2.477       .  S
C1159      O1168   1.266       .  A
C1159      O1164   1.267       .  A
C1159      C1310   1.473       .  S
O1160      C1166   1.269       .  A
O1160     Cd1163   2.518       .  S
C1161      O1169   1.265       .  A
C1161      C1289   1.477       .  S
C1162      O1167   1.267       .  A
C1162      O1165   1.263       .  A
C1162      C1285   1.480   1_554  S
Cd1163     O1170   2.437       .  S
Cd1163     O1169   2.470       .  S
Cd1163     O1168   2.439       .  S
Cd1163     O1164   2.474       .  S
Cd1163     O1167   2.497       .  S
Cd1163     O1165   2.476       .  S
C1166      O1170   1.262       .  A
C1166      C1298   1.480       .  S
O1171      C1174   1.270       .  A
O1171     Cd1176   2.478       .  S
C1172      O1181   1.265       .  A
C1172      O1177   1.268       .  A
C1172      C1273   1.470       .  S
O1173      C1179   1.270       .  A
O1173     Cd1176   2.504       .  S
C1174      O1182   1.264       .  A
C1174      C1277   1.477       .  S
C1175      O1180   1.268       .  A
C1175      O1178   1.265       .  A
C1175      C1978   1.473       .  S
Cd1176     O1183   2.407       .  S
Cd1176     O1182   2.446       .  S
Cd1176     O1181   2.440       .  S
Cd1176     O1177   2.468       .  S
Cd1176     O1180   2.475       .  S
Cd1176     O1178   2.448       .  S
C1179      O1183   1.262       .  A
C1179      C1282   1.472       .  S
O1184      C1187   1.270       .  A
O1184     Cd1189   2.476       .  S
C1185      O1194   1.264       .  A
C1185      O1190   1.268       .  A
C1185      C1265   1.476       .  S
O1186      C1192   1.269       .  A
O1186     Cd1189   2.504       .  S
C1187      O1195   1.265       .  A
C1187      C1278   1.478       .  S
C1188      O1193   1.267       .  A
C1188      O1191   1.266       .  A
C1188      C1494   1.478       .  S
Cd1189     O1196   2.415       .  S
Cd1189     O1195   2.461       .  S
Cd1189     O1194   2.455       .  S
Cd1189     O1190   2.478       .  S
Cd1189     O1193   2.477       .  S
Cd1189     O1191   2.468       .  S
C1192      O1196   1.262       .  A
C1192      C1269   1.474       .  S
O1197      C1200   1.270       .  A
O1197     Cd1202   2.489       .  S
C1198      O1207   1.264       .  A
C1198      O1203   1.268       .  A
C1198      C1270   1.472       .  S
O1199      C1205   1.269       .  A
O1199     Cd1202   2.485       .  S
C1200      O1208   1.263       .  A
C1200      C1257   1.480       .  S
C1201      O1206   1.267       .  A
C1201      O1204   1.265       .  A
C1201      C1790   1.475       .  S
Cd1202     O1209   2.392       .  S
Cd1202     O1208   2.460       .  S
Cd1202     O1207   2.449       .  S
Cd1202     O1203   2.467       .  S
Cd1202     O1206   2.478       .  S
Cd1202     O1204   2.458       .  S
C1205      O1209   1.263       .  A
C1205      C1261   1.467       .  S
O1210      C1213   1.271       .  A
O1210     Cd1215   2.496       .  S
C1211      O1220   1.263       .  A
C1211      O1216   1.271       .  A
C1211      C1254   1.474       .  S
O1212      C1218   1.269       .  A
O1212     Cd1215   2.493       .  S
C1213      O1221   1.264       .  A
C1213      C1258   1.480       .  S
C1214      O1219   1.267       .  A
C1214      O1217   1.265       .  A
C1214      C1702   1.476       .  S
Cd1215     O1222   2.410       .  S
Cd1215     O1221   2.453       .  S
Cd1215     O1220   2.435       .  S
Cd1215     O1216   2.478       .  S
Cd1215     O1219   2.469       .  S
Cd1215     O1217   2.482       .  S
C1218      O1222   1.263       .  A
C1218      C1274   1.471       .  S
O1223      C1226   1.266       .  A
O1223     Cd1228   2.456       .  S
C1224      O1233   1.265       .  A
C1224      O1229   1.266       .  A
C1224      C1262   1.464       .  S
O1225      C1231   1.269       .  A
O1225     Cd1228   2.513       .  S
C1226      O1234   1.267       .  A
C1226      C1249   1.476       .  S
C1227      O1232   1.269       .  A
C1227      O1230   1.263       .  A
C1227      C1869   1.482       .  S
Cd1228     O1235   2.435       .  S
Cd1228     O1234   2.471       .  S
Cd1228     O1233   2.433       .  S
Cd1228     O1229   2.447       .  S
Cd1228     O1232   2.505       .  S
Cd1228     O1230   2.472       .  S
C1231      O1235   1.261       .  A
C1231      C1266   1.478       .  S
O1236      C1239   1.268       .  A
O1236     Cd1241   2.479       .  S
C1237      O1246   1.263       .  A
C1237      O1242   1.267       .  A
C1237      C1281   1.470       .  S
O1238      C1244   1.268       .  A
O1238     Cd1241   2.495       .  S
C1239      O1247   1.267       .  A
C1239      C1250   1.479       .  S
C1240      O1245   1.267       .  A
C1240      O1243   1.264       .  A
C1240      C1286   1.480   1_556  S
Cd1241     O1248   2.443       .  S
Cd1241     O1247   2.463       .  S
Cd1241     O1246   2.442       .  S
Cd1241     O1242   2.474       .  S
Cd1241     O1245   2.488       .  S
Cd1241     O1243   2.467       .  S
C1244      O1248   1.260       .  A
C1244      C1253   1.472       .  S
C1249      C1250   1.348       .  D
C1249      H1251   1.087       .  S
C1250      H1252   1.087       .  S
C1253      C1254   1.339       .  D
C1253      H1255   1.086       .  S
C1254      H1256   1.087       .  S
C1257      C1258   1.340       .  D
C1257      H1259   1.087       .  S
C1258      H1260   1.087       .  S
C1261      C1262   1.343       .  D
C1261      H1263   1.087       .  S
C1262      H1264   1.088       .  S
C1265      C1266   1.349       .  D
C1265      H1267   1.087       .  S
C1266      H1268   1.087       .  S
C1269      C1270   1.347       .  D
C1269      H1271   1.087       .  S
C1270      H1272   1.087       .  S
C1273      C1274   1.346       .  D
C1273      H1275   1.087       .  S
C1274      H1276   1.087       .  S
C1277      C1278   1.340       .  D
C1277      H1279   1.086       .  S
C1278      H1280   1.086       .  S
C1281      C1282   1.346       .  D
C1281      H1283   1.087       .  S
C1282      H1284   1.087       .  S
C1285      C1286   1.349   1_556  D
C1285      H1287   1.087       .  S
C1286      H1288   1.087       .  S
C1289      C1290   1.350       .  D
C1289      H1291   1.087       .  S
C1290      H1292   1.087       .  S
C1293      C1294   1.345       .  D
C1293      H1295   1.086       .  S
C1294      H1296   1.087       .  S
C1297      C1298   1.348       .  D
C1297      H1299   1.087       .  S
C1298      H1300   1.087       .  S
C1301      C1302   1.352       .  D
C1301      H1303   1.087       .  S
C1302      H1304   1.087       .  S
C1305      C1306   1.341       .  D
C1305      H1307   1.088       .  S
C1306      H1308   1.087       .  S
C1309      C1310   1.345       .  D
C1309      H1311   1.087       .  S
C1310      H1312   1.087       .  S
C1313      C1314   1.346       .  D
C1313      H1315   1.087       .  S
C1314      H1316   1.087       .  S
C1317      C1318   1.349       .  D
C1317      H1319   1.086       .  S
C1318      H1320   1.087       .  S
C1321      C1322   1.333       .  D
C1321      H1323   1.087       .  S
C1322      H1324   1.088       .  S
C1325      C1326   1.349       .  D
C1325      H1327   1.087       .  S
C1326      H1328   1.087       .  S
C1329      C1330   1.348       .  D
C1329      H1331   1.087       .  S
C1330      H1332   1.087       .  S
C1333      C1334   1.345       .  D
C1333      H1335   1.087       .  S
C1334      H1336   1.088       .  S
C1337      C1338   1.345       .  D
C1337      H1339   1.087       .  S
C1338      H1340   1.087       .  S
C1341      C1342   1.345       .  D
C1341      H1343   1.088       .  S
C1342      H1344   1.086       .  S
C1345      C1346   1.339       .  D
C1345      H1347   1.086       .  S
C1346      H1348   1.087       .  S
C1349      C1350   1.345       .  D
C1349      H1351   1.087       .  S
C1350      H1352   1.087       .  S
C1353      C1354   1.347       .  D
C1353      H1355   1.087       .  S
C1354      H1356   1.087       .  S
C1357      C1358   1.351       .  D
C1357      H1359   1.087       .  S
C1358      H1360   1.086       .  S
C1361      C1362   1.341       .  D
C1361      H1363   1.087       .  S
C1362      H1364   1.088       .  S
C1365      C1366   1.349       .  D
C1365      H1367   1.087       .  S
C1366      H1368   1.087       .  S
C1369      C1370   1.349       .  D
C1369      H1371   1.087       .  S
C1370      H1372   1.087       .  S
C1373      C1374   1.346       .  D
C1373      H1375   1.087       .  S
C1374      H1376   1.087       .  S
C1377      C1378   1.350       .  D
C1377      H1379   1.087       .  S
C1378      H1380   1.086       .  S
C1381      C1382   1.350       .  D
C1381      H1383   1.087       .  S
C1382      H1384   1.087       .  S
C1385      C1386   1.340       .  D
C1385      H1387   1.087       .  S
C1386      H1388   1.087       .  S
C1389      C1390   1.344       .  D
C1389      H1391   1.087       .  S
C1390      H1392   1.087       .  S
C1393      C1394   1.346       .  D
C1393      H1395   1.087       .  S
C1394      H1396   1.087       .  S
C1397      C1398   1.338       .  D
C1397      H1399   1.087       .  S
C1398      H1400   1.087       .  S
C1401      C1402   1.339       .  D
C1401      H1403   1.087       .  S
C1402      H1404   1.086       .  S
C1405      C1406   1.336       .  D
C1405      H1407   1.087       .  S
C1406      H1408   1.087       .  S
C1409      C1410   1.340       .  D
C1409      H1411   1.087       .  S
C1410      H1412   1.087       .  S
C1413      C1414   1.350       .  D
C1413      H1415   1.087       .  S
C1414      H1416   1.087       .  S
C1417      C1418   1.345       .  D
C1417      H1419   1.087       .  S
C1418      H1420   1.087       .  S
C1421      C1422   1.347       .  D
C1421      H1423   1.088       .  S
C1422      H1424   1.087       .  S
C1425      C1426   1.341       .  D
C1425      H1427   1.087       .  S
C1426      H1428   1.088       .  S
C1429      C1430   1.353       .  D
C1429      H1431   1.087       .  S
C1430      H1432   1.087       .  S
C1433      C1434   1.342       .  D
C1433      H1435   1.087       .  S
C1434      H1436   1.087       .  S
C1437      C1438   1.345       .  D
C1437      H1439   1.087       .  S
C1438      H1440   1.087       .  S
C1441      C1442   1.341       .  D
C1441      H1443   1.087       .  S
C1442      H1444   1.087       .  S
C1445      C1446   1.339       .  D
C1445      H1447   1.087       .  S
C1446      H1448   1.088       .  S
C1449      C1450   1.342       .  D
C1449      H1451   1.086       .  S
C1450      H1452   1.086       .  S
C1453      C1454   1.348       .  D
C1453      H1455   1.087       .  S
C1454      H1456   1.087   1_655  S
C1457      C1458   1.347       .  D
C1457      H1459   1.087       .  S
C1458      H1460   1.088       .  S
C1461      C1462   1.350       .  D
C1461      H1463   1.087       .  S
C1462      H1464   1.086       .  S
C1465      C1466   1.345       .  D
C1465      H1467   1.087       .  S
C1466      H1468   1.087       .  S
C1469      C1470   1.347       .  D
C1469      H1471   1.087       .  S
C1470      H1472   1.088       .  S
C1473      C1474   1.348       .  D
C1473      H1475   1.087       .  S
C1474      H1476   1.087       .  S
C1477      C1478   1.345       .  D
C1477      H1479   1.088       .  S
C1478      H1480   1.086       .  S
C1481      C1482   1.348       .  D
C1481      H1483   1.087       .  S
C1482      H1484   1.087       .  S
C1485      C1486   1.345       .  D
C1485      H1487   1.087       .  S
C1486      H1488   1.087       .  S
C1489      C1490   1.349       .  D
C1489      H1491   1.086       .  S
C1490      H1492   1.087       .  S
C1493      C1494   1.348       .  D
C1493      H1495   1.087       .  S
C1494      H1496   1.087       .  S
C1497      C1498   1.345       .  D
C1497      H1499   1.087       .  S
C1498      H1500   1.087       .  S
C1501      C1502   1.345       .  D
C1501      H1503   1.087       .  S
C1502      H1504   1.087       .  S
C1505      C1506   1.345       .  D
C1505      H1507   1.087       .  S
C1506      H1508   1.086       .  S
C1509      C1510   1.340       .  D
C1509      H1511   1.087       .  S
C1510      H1512   1.087       .  S
C1513      C1514   1.348       .  D
C1513      H1515   1.087       .  S
C1514      H1516   1.087       .  S
C1517      C1518   1.345       .  D
C1517      H1519   1.087       .  S
C1518      H1520   1.087       .  S
C1521      C1522   1.339       .  D
C1521      H1523   1.087       .  S
C1522      H1524   1.088       .  S
C1525      C1526   1.346       .  D
C1525      H1527   1.087       .  S
C1526      H1528   1.087       .  S
C1529      C1530   1.350       .  D
C1529      H1531   1.087       .  S
C1530      H1532   1.087       .  S
C1533      C1534   1.347       .  D
C1533      H1535   1.087       .  S
C1534      H1536   1.087       .  S
C1537      C1538   1.348       .  D
C1537      H1539   1.087       .  S
C1538      H1540   1.087       .  S
C1541      C1542   1.340       .  D
C1541      H1543   1.086       .  S
C1542      H1544   1.086       .  S
C1545      C1546   1.346       .  D
C1545      H1547   1.087       .  S
C1546      H1548   1.087       .  S
C1549      C1550   1.349       .  D
C1549      H1551   1.087       .  S
C1550      H1552   1.087       .  S
C1553      C1554   1.337       .  D
C1553      H1555   1.086       .  S
C1554      H1556   1.087       .  S
C1557      C1558   1.350       .  D
C1557      H1559   1.087       .  S
C1558      H1560   1.087       .  S
C1561      C1562   1.349       .  D
C1561      H1563   1.087       .  S
C1562      H1564   1.087       .  S
C1565      C1566   1.341       .  D
C1565      H1567   1.087       .  S
C1566      H1568   1.086       .  S
C1569      C1570   1.345       .  D
C1569      H1571   1.087       .  S
C1570      H1572   1.087       .  S
C1573      C1574   1.338       .  D
C1573      H1575   1.086       .  S
C1574      H1576   1.087       .  S
C1577      C1578   1.350       .  D
C1577      H1579   1.087       .  S
C1578      H1580   1.087       .  S
C1581      C1582   1.342       .  D
C1581      H1583   1.086       .  S
C1582      H1584   1.087       .  S
C1585      C1586   1.349   1_556  D
C1585      H1587   1.087       .  S
C1586      H1588   1.087       .  S
C1589      C1590   1.348       .  D
C1589      H1591   1.087       .  S
C1590      H1592   1.087       .  S
C1593      C1594   1.349       .  D
C1593      H1595   1.087       .  S
C1594      H1596   1.087       .  S
C1597      C1598   1.337       .  D
C1597      H1599   1.087       .  S
C1598      H1600   1.087       .  S
C1601      C1602   1.345       .  D
C1601      H1603   1.087       .  S
C1602      H1604   1.087       .  S
C1605      C1606   1.341       .  D
C1605      H1607   1.086       .  S
C1606      H1608   1.087       .  S
C1609      C1610   1.340       .  D
C1609      H1611   1.087       .  S
C1610      H1612   1.088       .  S
C1613      C1614   1.338       .  D
C1613      H1615   1.087       .  S
C1614      H1616   1.087       .  S
C1617      C1618   1.348       .  D
C1617      H1619   1.087       .  S
C1618      H1620   1.087       .  S
C1621      C1622   1.348       .  D
C1621      H1623   1.087       .  S
C1622      H1624   1.087       .  S
C1625      C1626   1.350       .  D
C1625      H1627   1.087       .  S
C1626      H1628   1.087       .  S
C1629      C1630   1.345       .  D
C1629      H1631   1.087       .  S
C1630      H1632   1.087       .  S
C1633      C1634   1.350       .  D
C1633      H1635   1.087       .  S
C1634      H1636   1.087       .  S
C1637      C1638   1.348   1_545  D
C1637      H1639   1.087       .  S
C1638      H1640   1.087       .  S
C1641      C1642   1.350       .  D
C1641      H1643   1.087       .  S
C1642      H1644   1.087       .  S
C1645      C1646   1.341       .  D
C1645      H1647   1.087       .  S
C1646      H1648   1.088       .  S
C1649      C1650   1.347       .  D
C1649      H1651   1.087       .  S
C1650      H1652   1.087       .  S
C1653      C1654   1.350       .  D
C1653      H1655   1.087       .  S
C1654      H1656   1.087       .  S
C1657      C1658   1.336       .  D
C1657      H1659   1.087       .  S
C1658      H1660   1.088       .  S
C1661      C1662   1.347       .  D
C1661      H1663   1.087       .  S
C1662      H1664   1.087       .  S
C1665      C1666   1.348       .  D
C1665      H1667   1.087       .  S
C1666      H1668   1.087       .  S
C1669      C1670   1.340       .  D
C1669      H1671   1.087       .  S
C1670      H1672   1.087       .  S
C1673      C1674   1.343       .  D
C1673      H1675   1.087       .  S
C1674      H1676   1.087       .  S
C1677      C1678   1.348   1_655  D
C1677      H1679   1.087       .  S
C1678      H1680   1.087       .  S
C1681      C1682   1.350       .  D
C1681      H1683   1.087       .  S
C1682      H1684   1.087       .  S
C1685      C1686   1.340       .  D
C1685      H1687   1.087       .  S
C1686      H1688   1.087       .  S
C1689      C1690   1.336       .  D
C1689      H1691   1.088       .  S
C1690      H1692   1.087       .  S
C1693      C1694   1.346       .  D
C1693      H1695   1.087       .  S
C1694      H1696   1.087       .  S
C1697      C1698   1.351       .  D
C1697      H1699   1.087       .  S
C1698      H1700   1.087       .  S
C1701      C1702   1.349   1_554  D
C1701      H1703   1.087       .  S
C1702      H1704   1.087   1_455  S
C1705      C1706   1.345   1_554  D
C1705      H1707   1.087   1_554  S
C1706      H1708   1.087       .  S
C1709      C1710   1.346       .  D
C1709      H1711   1.087       .  S
C1710      H1712   1.087       .  S
C1713      C1714   1.349       .  D
C1713      H1715   1.087       .  S
C1714      H1716   1.087       .  S
C1717      C1718   1.346       .  D
C1717      H1719   1.087       .  S
C1718      H1720   1.087       .  S
C1721      C1722   1.350       .  D
C1721      H1723   1.087       .  S
C1722      H1724   1.087       .  S
C1725      C1726   1.339       .  D
C1725      H1727   1.087       .  S
C1726      H1728   1.088       .  S
C1729      C1730   1.347       .  D
C1729      H1731   1.087   1_565  S
C1730      H1732   1.087       .  S
C1733      C1734   1.349       .  D
C1733      H1735   1.087       .  S
C1734      H1736   1.087       .  S
C1737      C1738   1.338       .  D
C1737      H1739   1.087       .  S
C1738      H1740   1.087       .  S
C1741      C1742   1.350       .  D
C1741      H1743   1.087       .  S
C1742      H1744   1.087       .  S
C1745      C1746   1.337       .  D
C1745      H1747   1.087       .  S
C1746      H1748   1.087       .  S
C1749      C1750   1.349       .  D
C1749      H1751   1.087   1_556  S
C1750      H1752   1.087   1_565  S
C1753      C1754   1.340       .  D
C1753      H1755   1.087       .  S
C1754      H1756   1.087       .  S
C1757      C1758   1.350       .  D
C1757      H1759   1.087       .  S
C1758      H1760   1.087       .  S
C1761      C1762   1.345       .  D
C1761      H1763   1.087       .  S
C1762      H1764   1.086       .  S
C1765      C1766   1.347       .  D
C1765      H1767   1.088       .  S
C1766      H1768   1.087       .  S
C1769      C1770   1.347       .  D
C1769      H1771   1.087       .  S
C1770      H1772   1.087       .  S
C1773      C1774   1.345       .  D
C1773      H1775   1.088       .  S
C1774      H1776   1.087       .  S
C1777      C1778   1.337       .  D
C1777      H1779   1.087       .  S
C1778      H1780   1.087       .  S
C1781      C1782   1.339       .  D
C1781      H1783   1.087       .  S
C1782      H1784   1.087       .  S
C1785      C1786   1.348   1_655  D
C1785      H1787   1.087       .  S
C1786      H1788   1.087       .  S
C1789      C1790   1.347       .  D
C1789      H1791   1.087       .  S
C1790      H1792   1.087       .  S
C1793      C1794   1.348       .  D
C1793      H1795   1.087       .  S
C1794      H1796   1.087       .  S
C1797      C1798   1.345   1_455  D
C1797      H1799   1.086       .  S
C1798      H1800   1.088   1_655  S
C1801      C1802   1.337       .  D
C1801      H1803   1.087       .  S
C1802      H1804   1.087       .  S
C1805      C1806   1.340       .  D
C1805      H1807   1.087       .  S
C1806      H1808   1.087       .  S
C1809      C1810   1.346       .  D
C1809      H1811   1.087       .  S
C1810      H1812   1.087       .  S
C1813      C1814   1.345       .  D
C1813      H1815   1.088       .  S
C1814      H1816   1.087       .  S
C1817      C1818   1.338       .  D
C1817      H1819   1.087       .  S
C1818      H1820   1.087       .  S
C1821      C1822   1.347       .  D
C1821      H1823   1.087       .  S
C1822      H1824   1.087       .  S
C1825      C1826   1.341       .  D
C1825      H1827   1.087       .  S
C1826      H1828   1.086       .  S
C1829      C1830   1.346       .  D
C1829      H1831   1.087       .  S
C1830      H1832   1.087       .  S
C1833      C1834   1.344       .  D
C1833      H1835   1.087       .  S
C1834      H1836   1.087       .  S
C1837      C1838   1.347       .  D
C1837      H1839   1.087       .  S
C1838      H1840   1.087       .  S
C1841      C1842   1.345       .  D
C1841      H1843   1.086       .  S
C1842      H1844   1.088       .  S
C1845      C1846   1.341       .  D
C1845      H1847   1.086       .  S
C1846      H1848   1.087       .  S
C1849      C1850   1.347       .  D
C1849      H1851   1.087       .  S
C1850      H1852   1.087       .  S
C1853      C1854   1.347       .  D
C1853      H1855   1.087       .  S
C1854      H1856   1.087       .  S
C1857      C1858   1.349       .  D
C1857      H1859   1.087       .  S
C1858      H1860   1.087   1_565  S
C1861      C1862   1.348       .  D
C1861      H1863   1.087       .  S
C1862      H1864   1.087       .  S
C1865      C1866   1.340       .  D
C1865      H1867   1.087       .  S
C1866      H1868   1.087       .  S
C1869      C1870   1.350       .  D
C1869      H1871   1.087       .  S
C1870      H1872   1.087       .  S
C1873      C1874   1.347       .  D
C1873      H1875   1.087       .  S
C1874      H1876   1.087       .  S
C1877      C1878   1.339       .  D
C1877      H1879   1.086       .  S
C1878      H1880   1.087       .  S
C1881      C1882   1.349       .  D
C1881      H1883   1.087   1_556  S
C1882      H1884   1.087       .  S
C1885      C1886   1.344       .  D
C1885      H1887   1.087       .  S
C1886      H1888   1.087       .  S
C1889      C1890   1.350       .  D
C1889      H1891   1.087       .  S
C1890      H1892   1.087       .  S
C1893      C1894   1.338       .  D
C1893      H1895   1.087       .  S
C1894      H1896   1.086       .  S
C1897      C1898   1.346   1_565  D
C1897      H1899   1.088       .  S
C1898      H1900   1.087       .  S
C1901      C1902   1.348       .  D
C1901      H1903   1.087       .  S
C1902      H1904   1.087       .  S
C1905      C1906   1.340       .  D
C1905      H1907   1.086       .  S
C1906      H1908   1.087       .  S
C1909      C1910   1.349       .  D
C1909      H1911   1.087       .  S
C1910      H1912   1.087       .  S
C1913      C1914   1.345       .  D
C1913      H1915   1.087       .  S
C1914      H1916   1.087       .  S
C1917      C1918   1.348   1_655  D
C1917      H1919   1.087       .  S
C1918      H1920   1.087       .  S
C1921      C1922   1.337       .  D
C1921      H1923   1.086       .  S
C1922      H1924   1.086       .  S
C1925      C1926   1.339       .  D
C1925      H1927   1.087       .  S
C1926      H1928   1.087       .  S
C1929      C1930   1.349       .  D
C1929      H1931   1.087       .  S
C1930      H1932   1.087       .  S
C1933      C1934   1.348       .  D
C1933      H1935   1.087       .  S
C1934      H1936   1.087       .  S
C1937      C1938   1.347       .  D
C1937      H1939   1.087       .  S
C1938      H1940   1.087       .  S
C1941      C1942   1.348   1_445  D
C1941      H1943   1.087       .  S
C1942      H1944   1.087       .  S
C1945      C1946   1.347       .  D
C1945      H1947   1.086       .  S
C1946      H1948   1.087       .  S
C1949      C1950   1.342       .  D
C1949      H1951   1.086       .  S
C1950      H1952   1.086       .  S
C1953      C1954   1.346       .  D
C1953      H1955   1.087       .  S
C1954      H1956   1.087       .  S
C1957      C1958   1.349   1_554  D
C1957      H1959   1.087       .  S
C1958      H1960   1.086       .  S
C1961      C1962   1.352       .  D
C1961      H1963   1.087       .  S
C1962      H1964   1.087       .  S
C1965      C1966   1.349       .  D
C1965      H1967   1.087       .  S
C1966      H1968   1.087       .  S
C1969      C1970   1.348       .  D
C1969      H1971   1.087       .  S
C1970      H1972   1.087       .  S
C1973      C1974   1.338       .  D
C1973      H1975   1.086       .  S
C1974      H1976   1.087       .  S
C1977      C1978   1.347       .  D
C1977      H1979   1.087       .  S
C1978      H1980   1.087       .  S
C1981      C1982   1.340       .  D
C1981      H1983   1.086       .  S
C1982      H1984   1.087       .  S
C1985      C1986   1.344       .  D
C1985      H1987   1.087       .  S
C1986      H1988   1.087       .  S
C1989      C1990   1.349       .  D
C1989      H1991   1.087       .  S
C1990      H1992   1.087   1_456  S
C1993      C1994   1.348       .  D
C1993      H1995   1.087       .  S
C1994      H1996   1.087       .  S
C1997      C1998   1.335       .  D
C1997      H1999   1.087       .  S
C1998      H2000   1.086       .  S
C2001      C2002   1.337       .  D
C2001      H2003   1.087       .  S
C2002      H2004   1.088       .  S
C2005      C2006   1.347       .  D
C2005      H2007   1.087       .  S
C2006      H2008   1.087       .  S
C2009      C2010   1.341       .  D
C2009      H2011   1.086       .  S
C2010      H2012   1.086       .  S
C2013      C2014   1.345       .  D
C2013      H2015   1.086       .  S
C2014      H2016   1.087       .  S
