geometry optimzed in LAMMPS
_audit_creation_date              2020-12-01 
_audit_creation_method            'lammps2cif' 
_symmetry_space_group_name_H-M    'P1' 
_symmetry_Int_Tables_number       1 
_symmetry_cell_setting            triclinic 
loop_ 
_symmetry_equiv_pos_as_xyz 
  x,y,z 
_cell_length_a                    56.36460436 
_cell_length_b                    56.76624896743939 
_cell_length_c                    56.480689986994044 
_cell_angle_alpha                 90.1695129827398 
_cell_angle_beta                  90.08641359169808 
_cell_angle_gamma                 89.85392890666076 
loop_ 
_atom_site_label 
_atom_site_type_symbol 
_atom_site_fract_x 
_atom_site_fract_y 
_atom_site_fract_z 
_atom_site_charge 
O1          O  0.75997036  0.47569136  0.73008386    -0.72200
O2          O  0.72128743  0.52557977  0.76208089    -0.73200
O3          O  0.75880251  0.52570614  0.72898178    -0.61800
O4          O  0.72231187  0.47586367  0.76315723    -0.70300
O5          O  0.74788488  0.47793103  0.79304771    -0.69800
O6          O  0.78561905  0.52626770  0.75741897    -0.61100
O7          O  0.74807148  0.52753989  0.79087514    -0.73600
O8          O  0.78562190  0.47649410  0.75991121    -0.72300
Cu9        Cu  0.73971540  0.50068760  0.74501991     1.04600
Cu10       Cu  0.76772960  0.50212538  0.77632024     1.04300
C11         C  0.77875941  0.46797960  0.74012839     0.94000
C12         C  0.72855127  0.53431272  0.78163739     0.93100
C13         C  0.77810962  0.53389626  0.73749058     0.85200
C14         C  0.72920046  0.46924581  0.78363758     0.91500
O15         O  0.50160418  0.78872308  0.78894737    -0.72200
O16         O  0.45364514  0.82329109  0.75001542    -0.73200
O17         O  0.45173743  0.78975226  0.78702637    -0.61800
O18         O  0.50386222  0.82218106  0.75190779    -0.70300
O19         O  0.50502283  0.79270391  0.72594098    -0.69800
O20         O  0.45135574  0.76147666  0.75970651    -0.61100
O21         O  0.45478996  0.79492599  0.72288004    -0.73600
O22         O  0.50120229  0.75941744  0.76280716    -0.72300
Cu23       Cu  0.47770975  0.80705776  0.77035508     1.04600
Cu24       Cu  0.47812351  0.77615181  0.74185576     1.04300
C25         C  0.50854997  0.76835022  0.78224891     0.94000
C26         C  0.44654157  0.81454111  0.73039845     0.93100
C27         C  0.44345931  0.77043428  0.77890473     0.85200
C28         C  0.51287174  0.81236651  0.73362868     0.91500
O29         O  0.73130713  0.79400617  0.44859103    -0.72200
O30         O  0.76368547  0.75718300  0.49988245    -0.73200
O31         O  0.73197227  0.79579466  0.49911135    -0.61800
O32         O  0.76313176  0.75535783  0.44970861    -0.70300
O33         O  0.79290899  0.78074534  0.44765424    -0.69800
O34         O  0.76289492  0.81988977  0.49871367    -0.61100
O35         O  0.79463230  0.78123790  0.49774893    -0.73600
O36         O  0.76079069  0.81943639  0.44840967    -0.72300
Cu37       Cu  0.74642686  0.77476780  0.47434789     1.04600
Cu38       Cu  0.77883254  0.80121790  0.47306676     1.04300
C39         C  0.74078603  0.81263447  0.44023472     0.94000
C40         C  0.78438501  0.76330934  0.50670086     0.93100
C41         C  0.74279651  0.81389601  0.50714687     0.85200
C42         C  0.78296580  0.76167989  0.44087359     0.91500
N43         N  0.29563529  0.86933515  0.34405180    -0.26600
N44         N  0.28542936  0.88931138  0.35052519    -0.34400
C45         C  0.26801490  0.88469930  0.36598675     0.01800
C46         C  0.26738931  0.86065170  0.36981797     0.07800
C47         C  0.28516353  0.85145590  0.35555556    -0.05300
H48         H  0.25692027  0.89799457  0.37415906     0.08400
H49         H  0.29049423  0.83319194  0.35406203     0.09600
Cu50       Cu  0.29670643  0.92218798  0.34003542     0.44200
Cu51       Cu  0.32337999  0.86750088  0.32004560     0.42000
Cu52       Cu  0.34560529  0.92353145  0.29909368     0.43900
N53         N  0.31241614  0.95292251  0.32872327    -0.34000
N54         N  0.33018238  0.95339782  0.31349624    -0.28200
C55         C  0.33625920  0.97589619  0.30951762    -0.04300
C56         C  0.32166786  0.99020874  0.32298630     0.07900
C57         C  0.30678248  0.97510115  0.33499558     0.01700
H58         H  0.35028323  0.98137043  0.29771110     0.09300
H59         H  0.29278542  0.97981981  0.34722184     0.08400
N60         N  0.35857710  0.89127327  0.28784007    -0.35400
N61         N  0.35031571  0.87084078  0.29532046    -0.27600
C62         C  0.36240713  0.85336788  0.28466101    -0.02800
C63         C  0.37922501  0.86324925  0.26987306     0.05800
C64         C  0.37626845  0.88734576  0.27236544     0.03900
H65         H  0.35922868  0.83480612  0.28752791     0.09000
H66         H  0.38642968  0.90104407  0.26383071     0.07800
N67         N  0.29606506  0.13638055  0.34962570    -0.26600
N68         N  0.28836400  0.11641762  0.35878596    -0.34400
C69         C  0.27273602  0.12134855  0.37605421     0.01800
C70         C  0.27049522  0.14556976  0.37776245     0.07800
C71         C  0.28551580  0.15453282  0.36072372    -0.05300
H72         H  0.26381966  0.10827303  0.38670040     0.08400
H73         H  0.28857638  0.17289299  0.35667615     0.09600
Cu74       Cu  0.29941198  0.08343496  0.34751874     0.44200
Cu75       Cu  0.32091824  0.13835019  0.32299144     0.42000
Cu76       Cu  0.34354862  0.08329349  0.30093470     0.43900
N77         N  0.31354202  0.05306927  0.33275971    -0.34000
N78         N  0.32979880  0.05317743  0.31591398    -0.28200
C79         C  0.33529987  0.03088661  0.31009914    -0.04300
C80         C  0.32178251  0.01602892  0.32385748     0.07900
C81         C  0.30816172  0.03062189  0.33804809     0.01700
H82         H  0.34800400  0.02593023  0.29662649     0.09300
H83         H  0.29525109  0.02537428  0.35115501     0.08400
N84         N  0.35485527  0.11565836  0.28892728    -0.35400
N85         N  0.34668078  0.13588042  0.29726762    -0.27600
C86         C  0.35816062  0.15369124  0.28674634    -0.02800
C87         C  0.37415688  0.14412251  0.27096605     0.05800
C88         C  0.37168166  0.12001779  0.27270350     0.03900
H89         H  0.35527762  0.17217339  0.29051257     0.09000
H90         H  0.38169603  0.10667227  0.26330940     0.07800
O91         O  0.49709910  0.21626737  0.15400805    -0.72200
O92         O  0.44839615  0.18458439  0.19393288    -0.73200
O93         O  0.44673892  0.21707311  0.15611265    -0.61800
O94         O  0.49836417  0.18381546  0.19186759    -0.70300
O95         O  0.50054861  0.21377110  0.21719035    -0.69800
O96         O  0.44763792  0.24626171  0.18237732    -0.61100
O97         O  0.45033649  0.21378392  0.22009737    -0.73600
O98         O  0.49819990  0.24613959  0.17940996    -0.72300
Cu99       Cu  0.47258534  0.19944019  0.17305265     1.04600
Cu100      Cu  0.47421601  0.23107928  0.20063545     1.04300
C101        C  0.50563940  0.23605146  0.16056808     0.94000
C102        C  0.44181688  0.19403444  0.21338689     0.93100
C103        C  0.43875058  0.23669836  0.16388597     0.85200
C104        C  0.50762701  0.19357513  0.21005291     0.91500
N105        N  0.67040046  0.87127915  0.33247052    -0.26600
N106        N  0.67967816  0.89136966  0.33986340    -0.34400
C107        C  0.69423196  0.88703281  0.35826202     0.01800
C108        C  0.69409745  0.86305249  0.36270247     0.07800
C109        C  0.67885450  0.85363567  0.34592112    -0.05300
H110        H  0.70356924  0.90044555  0.36820218     0.08400
H111        H  0.67381622  0.83535116  0.34399546     0.09600
Cu112      Cu  0.67099565  0.92388002  0.32546900     0.44200
Cu113      Cu  0.64538703  0.86885673  0.30552731     0.42000
Cu114      Cu  0.62970322  0.92311976  0.27601994     0.43900
N115        N  0.65880411  0.95395537  0.30846557    -0.34000
N116        N  0.64391734  0.95365145  0.29034480    -0.28200
C117        C  0.63896686  0.97594343  0.28396908    -0.04300
C118        C  0.65132896  0.99098226  0.29878102     0.07900
C119        C  0.66373182  0.97646142  0.31408254     0.01700
H120        H  0.62687169  0.98080099  0.26990667     0.09300
H121        H  0.67514838  0.98181757  0.32852880     0.08400
N122        N  0.61485096  0.89079962  0.26756930    -0.35400
N123        N  0.62014325  0.87104688  0.27877509    -0.27600
C124        C  0.60593544  0.85376251  0.27074833    -0.02800
C125        C  0.59112189  0.86307723  0.25358100     0.05800
C126        C  0.59727984  0.88657391  0.25198343     0.03900
H127        H  0.60591106  0.83590519  0.27738839     0.09000
H128        H  0.58885547  0.89984771  0.24111067     0.07800
N129        N  0.66200796  0.13612359  0.33792324    -0.26600
N130        N  0.67155149  0.11594290  0.34466802    -0.34400
C131        C  0.68542752  0.11973051  0.36364351     0.01800
C132        C  0.68476230  0.14349919  0.36909556     0.07800
C133        C  0.66971923  0.15336710  0.35238148    -0.05300
H134        H  0.69507961  0.10610033  0.37295241     0.08400
H135        H  0.66469590  0.17170843  0.35086673     0.09600
Cu136      Cu  0.66515358  0.08407284  0.32811612     0.44200
Cu137      Cu  0.63811251  0.13879378  0.31006854     0.42000
Cu138      Cu  0.62375356  0.08410655  0.27925738     0.43900
N139        N  0.65541840  0.05400650  0.30985576    -0.34000
N140        N  0.64032348  0.05389199  0.29191872    -0.28200
C141        C  0.63691333  0.03149199  0.28483949    -0.04300
C142        C  0.65049012  0.01689199  0.29906932     0.07900
C143        C  0.66202209  0.03176448  0.31467936     0.01700
H144        H  0.62493987  0.02621310  0.27082142     0.09300
H145        H  0.67386075  0.02679332  0.32891768     0.08400
N146        N  0.60768985  0.11633280  0.27212173    -0.35400
N147        N  0.61290828  0.13612508  0.28337404    -0.27600
C148        C  0.59857511  0.15338356  0.27550241    -0.02800
C149        C  0.58357331  0.14407650  0.25847742     0.05800
C150        C  0.58990132  0.12053167  0.25676639     0.03900
H151        H  0.59861870  0.17126840  0.28217730     0.09000
H152        H  0.58193382  0.10732703  0.24544554     0.07800
O153        O  0.75974508  0.24782713  0.45559976    -0.72200
O154        O  0.72599274  0.20907928  0.50473522    -0.73200
O155        O  0.75922430  0.24618713  0.50576725    -0.61800
O156        O  0.72598972  0.21091951  0.45430758    -0.70300
O157        O  0.75422563  0.18397263  0.45427152    -0.69800
O158        O  0.78920757  0.22072441  0.50417604    -0.61100
O159        O  0.75587953  0.18357421  0.50464643    -0.73600
O160        O  0.78840193  0.22108129  0.45410213    -0.72300
Cu161      Cu  0.74169584  0.22937136  0.48008225     1.04600
Cu162      Cu  0.77292025  0.20138686  0.47920434     1.04300
C163        C  0.77958617  0.24066980  0.44724504     0.94000
C164        C  0.73597070  0.19052924  0.51289495     0.93100
C165        C  0.77944425  0.23907957  0.51301101     0.85200
C166        C  0.73453184  0.19173112  0.44610234     0.91500
N167        N  0.62292408  0.86798229  0.66639122    -0.26600
N168        N  0.61724376  0.88721839  0.67832888    -0.34400
C169        C  0.59857320  0.88256415  0.69229262     0.01800
C170        C  0.59200235  0.85931117  0.68878876     0.07800
C171        C  0.60789745  0.85061784  0.67224944    -0.05300
H172        H  0.59008626  0.89534140  0.70375404     0.08400
H173        H  0.60808153  0.83318913  0.66445068     0.09600
Cu174      Cu  0.63346478  0.91945177  0.67311714     0.44200
Cu175      Cu  0.64982375  0.86674127  0.64165945     0.42000
Cu176      Cu  0.67925457  0.92185449  0.62804666     0.43900
N177        N  0.64939046  0.95032947  0.66204724    -0.34000
N178        N  0.66610493  0.95130435  0.64567313    -0.28200
C179        C  0.67151969  0.97402080  0.64166249    -0.04300
C180        C  0.65745604  0.98794333  0.65614068     0.07900
C181        C  0.64367719  0.97234308  0.66882534     0.01700
H182        H  0.68417195  0.97994983  0.62860232     0.09300
H183        H  0.62999479  0.97664638  0.68154631     0.08400
N184        N  0.68678878  0.89008468  0.61125328    -0.35400
N185        N  0.67580892  0.87012729  0.61618531    -0.27600
C186        C  0.68325541  0.85327637  0.60117673    -0.02800
C187        C  0.69978451  0.86306117  0.58617640     0.05800
C188        C  0.70166813  0.88638825  0.59298962     0.03900
H189        H  0.67661054  0.83541571  0.60076749     0.09000
H190        H  0.71232323  0.89986108  0.58469752     0.07800
N191        N  0.66438116  0.13276450  0.61847531    -0.26600
N192        N  0.67816914  0.11417112  0.61518256    -0.34400
C193        C  0.69434153  0.11917683  0.59845296     0.01800
C194        C  0.69043600  0.14197305  0.59080876     0.07800
C195        C  0.67131300  0.15006462  0.60384155    -0.05300
H196        H  0.70725213  0.10679721  0.59158594     0.08400
H197        H  0.66263001  0.16700931  0.60227902     0.09600
Cu198      Cu  0.67256899  0.08213383  0.63169575     0.44200
Cu199      Cu  0.63586505  0.13320912  0.64161045     0.42000
Cu200      Cu  0.62331521  0.07928623  0.67327144     0.43900
N201        N  0.66124191  0.05137357  0.64771449    -0.34000
N202        N  0.64344886  0.05028713  0.66291645    -0.28200
C203        C  0.63982747  0.02762271  0.66877789    -0.04300
C204        C  0.65602654  0.01383243  0.65658450     0.07900
C205        C  0.66933336  0.02946476  0.64344222     0.01700
H206        H  0.62586878  0.02159279  0.68038512     0.09300
H207        H  0.68338544  0.02521644  0.63110964     0.08400
N208        N  0.60421572  0.11035211  0.67791211    -0.35400
N209        N  0.60855449  0.12983070  0.66589375    -0.27600
C210        C  0.59288554  0.14653932  0.67235998    -0.02800
C211        C  0.57803566  0.13719286  0.68933681     0.05800
C212        C  0.58573106  0.11423600  0.69250148     0.03900
H213        H  0.59253254  0.16429158  0.66544874     0.09000
H214        H  0.57837392  0.10130447  0.70443497     0.07800
N215        N  0.34381716  0.86820976  0.65120101    -0.26600
N216        N  0.34952874  0.88842249  0.66140608    -0.34400
C217        C  0.36746868  0.88475210  0.67666052     0.01800
C218        C  0.37337142  0.86116211  0.67588044     0.07800
C219        C  0.35810998  0.85113457  0.65958382    -0.05300
H220        H  0.37569452  0.89827312  0.68740216     0.08400
H221        H  0.35735350  0.83281074  0.65432406     0.09600
Cu222      Cu  0.33313276  0.92023636  0.65404008     0.44200
Cu223      Cu  0.31679032  0.86484831  0.62650953     0.42000
Cu224      Cu  0.28498962  0.91897770  0.61238865     0.43900
N225        N  0.31459729  0.95000133  0.64367115    -0.34000
N226        N  0.29679632  0.94956641  0.62843002    -0.28200
C227        C  0.28898739  0.97169063  0.62489296    -0.04300
C228        C  0.30259650  0.98673389  0.63857154     0.07900
C229        C  0.31863248  0.97239993  0.65026147     0.01700
H230        H  0.27479841  0.97646421  0.61289820     0.09300
H231        H  0.33250101  0.97783883  0.66234039     0.08400
N232        N  0.27769419  0.88658835  0.59725584    -0.35400
N233        N  0.28931745  0.86692552  0.60216515    -0.27600
C234        C  0.28079271  0.84944812  0.58848995    -0.02800
C235        C  0.26295555  0.85860804  0.57439385     0.05800
C236        C  0.26145215  0.88215494  0.58040984     0.03900
H237        H  0.28727844  0.83149409  0.58860122     0.09000
H238        H  0.24981140  0.89524017  0.57269781     0.07800
N239        N  0.33040582  0.13260750  0.66371330    -0.26600
N240        N  0.33975577  0.11223469  0.67011756    -0.34400
C241        C  0.35898401  0.11628625  0.68360423     0.01800
C242        C  0.36184416  0.14040155  0.68584543     0.07800
C243        C  0.34338704  0.15020478  0.67299511    -0.05300
H244        H  0.37016785  0.10267853  0.69107132     0.08400
H245        H  0.33968020  0.16874697  0.67053320     0.09600
Cu246      Cu  0.32602013  0.07997125  0.65998050     0.44200
Cu247      Cu  0.30124359  0.13527440  0.64165408     0.42000
Cu248      Cu  0.27648038  0.08025215  0.61916930     0.43900
N249        N  0.30977690  0.04976240  0.64743092    -0.34000
N250        N  0.29171493  0.04970902  0.63246815    -0.28200
C251        C  0.28604094  0.02726243  0.62726192    -0.04300
C252        C  0.30129527  0.01258171  0.63957691     0.07900
C253        C  0.31604781  0.02742923  0.65219887     0.01700
H254        H  0.27215370  0.02207047  0.61509268     0.09300
H255        H  0.33060922  0.02243355  0.66364397     0.08400
N256        N  0.26607684  0.11344227  0.60780015    -0.35400
N257        N  0.27508827  0.13335014  0.61604569    -0.27600
C258        C  0.26615785  0.15148709  0.60363467    -0.02800
C259        C  0.25070894  0.14255564  0.58693564     0.05800
C260        C  0.25105717  0.11843135  0.58997135     0.03900
H261        H  0.27134387  0.16969277  0.60589148     0.09000
H262        H  0.24201454  0.10541669  0.57925424     0.07800
O263        O  0.49513306  0.17996238  0.75806228    -0.72200
O264        O  0.44544534  0.21590264  0.79388261    -0.73200
O265        O  0.44484083  0.18076793  0.75772651    -0.61800
O266        O  0.49572989  0.21508270  0.79395600    -0.70300
O267        O  0.49675773  0.24237692  0.76589365    -0.69800
O268        O  0.44465903  0.20893747  0.73099166    -0.61100
O269        O  0.44632578  0.24401811  0.76676271    -0.73600
O270        O  0.49517056  0.20731537  0.73012898    -0.72300
Cu271      Cu  0.47023774  0.19695901  0.77684911     1.04600
Cu272      Cu  0.47070986  0.22661639  0.74748420     1.04300
C273        C  0.50313500  0.18795926  0.73852971     0.94000
C274        C  0.43817189  0.23577595  0.78614082     0.93100
C275        C  0.43650516  0.18937919  0.73854315     0.85200
C276        C  0.50441795  0.23402645  0.78545140     0.91500
O277        O  0.21863500  0.21664339  0.45424438    -0.72200
O278        O  0.18045828  0.24883037  0.50463593    -0.73200
O279        O  0.21539465  0.21322843  0.50411643    -0.61800
O280        O  0.18394565  0.25241814  0.45452738    -0.70300
O281        O  0.15610956  0.22530288  0.44997201    -0.69800
O282        O  0.18681833  0.18657587  0.50097103    -0.61100
O283        O  0.15180674  0.22240934  0.49999228    -0.80800
O284        O  0.19127464  0.18916510  0.45111299    -0.72300
Cu285      Cu  0.20054898  0.23372205  0.47947918     1.04600
Cu286      Cu  0.17050035  0.20492069  0.47531031     1.04300
C287        C  0.21131794  0.19752168  0.44482590     0.94000
C288        C  0.16020967  0.24058001  0.51038780     0.93100
C289        C  0.20597529  0.19387479  0.51060432     0.85200
C290        C  0.16512099  0.24514183  0.44429727     0.91500
N291        N  0.60635515  0.31171749  0.84314635    -0.26600
N292        N  0.60427450  0.29811542  0.86196702    -0.34400
C293        C  0.58806413  0.28131252  0.85747371     0.01800
C294        C  0.57941958  0.28452446  0.83471307     0.07800
C295        C  0.59148709  0.30397320  0.82618954    -0.05300
H296        H  0.58277398  0.26790848  0.86996302     0.08400
H297        H  0.58922902  0.31223032  0.80909196     0.09600
Cu298      Cu  0.62273384  0.30408504  0.89321615     0.44200
Cu299      Cu  0.62890833  0.34056605  0.84181976     0.42000
Cu300      Cu  0.66409735  0.35333932  0.89434589     0.43900
N301        N  0.64150499  0.31463202  0.92302863    -0.34000
N302        N  0.65670138  0.33235193  0.92353232    -0.28200
C303        C  0.66484417  0.33501526  0.94581004    -0.04300
C304        C  0.65412638  0.31826203  0.95995450     0.07900
C305        C  0.63947899  0.30567021  0.94492737     0.01700
H306        H  0.67694669  0.34870290  0.95143064     0.09300
H307        H  0.62768114  0.29143984  0.94964546     0.08400
N308        N  0.66645151  0.37229112  0.86297352    -0.35400
N309        N  0.65332721  0.36783409  0.84406628    -0.27600
C310        C  0.65916081  0.38301040  0.82680607    -0.02800
C311        C  0.67696662  0.39767109  0.83509774     0.05800
C312        C  0.68108014  0.39035813  0.85814717     0.03900
H313        H  0.65119567  0.38314968  0.80936928     0.09000
H314        H  0.69414011  0.39730012  0.87034768     0.07800
N315        N  0.61426691  0.30238586  0.10332907    -0.26600
N316        N  0.60954330  0.29077661  0.08357170    -0.34400
C317        C  0.59068550  0.27677466  0.08720148     0.01800
C318        C  0.58322311  0.27991639  0.11031442     0.07800
C319        C  0.59854612  0.29623606  0.12003353    -0.05300
H320        H  0.58272786  0.26552198  0.07391006     0.08400
H321        H  0.59823027  0.30320928  0.13787958     0.09600
Cu322      Cu  0.62820436  0.29592701  0.05242117     0.44200
Cu323      Cu  0.64140972  0.32643547  0.10648900     0.42000
Cu324      Cu  0.67718862  0.33761299  0.05449233     0.43900
N325        N  0.64674423  0.30721232  0.02288334    -0.34000
N326        N  0.66442444  0.32248259  0.02351315    -0.28200
C327        C  0.67047354  0.32810762  0.00118675    -0.04300
C328        C  0.65589987  0.31577091  0.98583191     0.07900
C329        C  0.64119042  0.30262050  0.00019179     0.01700
H330        H  0.68369948  0.34106834  0.99654178     0.09300
H331        H  0.62657557  0.29158770  0.99462712     0.08400
N332        N  0.68217825  0.35433051  0.08682737    -0.35400
N333        N  0.66873377  0.35045450  0.10557137    -0.27600
C334        C  0.67479699  0.36552179  0.12290133    -0.02800
C335        C  0.69293428  0.37957419  0.11468691     0.05800
C336        C  0.69727584  0.37198240  0.09180189     0.03900
H337        H  0.66613848  0.36663455  0.13995317     0.09000
H338        H  0.70969985  0.37946279  0.07934503     0.07800
O339        O  0.72561597  0.46898996  0.17983524    -0.72200
O340        O  0.75719739  0.52173892  0.21460836    -0.73200
O341        O  0.72426607  0.51913099  0.17710009    -0.61800
O342        O  0.75870223  0.47203511  0.21732834    -0.70300
O343        O  0.78856675  0.47192770  0.19170027    -0.69800
O344        O  0.75324727  0.51795428  0.15095718    -0.61100
O345        O  0.78659770  0.52142350  0.18860033    -0.73600
O346        O  0.75533854  0.46807113  0.15417532    -0.72300
Cu347      Cu  0.74037040  0.49548634  0.19804735     1.04600
Cu348      Cu  0.77191336  0.49481792  0.17038917     1.04300
C349        C  0.73567890  0.45987999  0.16174092     0.94000
C350        C  0.77702292  0.52976393  0.20733221     0.93100
C351        C  0.73331900  0.52635407  0.15771727     0.85200
C352        C  0.77924570  0.46488156  0.21101102     0.91500
N353        N  0.64829294  0.63100248  0.84302430    -0.26600
N354        N  0.66125186  0.62620186  0.86192239    -0.34400
C355        C  0.67629516  0.60857956  0.85677686     0.01800
C356        C  0.67249070  0.60200086  0.83355764     0.07800
C357        C  0.65465494  0.61650080  0.82529188    -0.05300
H358        H  0.68944639  0.60153861  0.86882112     0.08400
H359        H  0.64747501  0.61707437  0.80752670     0.09600
Cu360      Cu  0.65884929  0.64450293  0.89334509     0.44200
Cu361      Cu  0.62386026  0.65797632  0.84195596     0.42000
Cu362      Cu  0.61910632  0.69448265  0.89460041     0.43900
N363        N  0.65309925  0.66502079  0.92291267    -0.34000
N364        N  0.63867262  0.68339754  0.92337351    -0.28200
C365        C  0.63765849  0.69190809  0.94555409    -0.04300
C366        C  0.65213160  0.67815751  0.95965522     0.07900
C367        C  0.66169494  0.66131554  0.94476246     0.01700
H368        H  0.62641450  0.70636031  0.95112952     0.09300
H369        H  0.67322128  0.64682747  0.94956965     0.08400
N370        N  0.59940912  0.69967963  0.86426411    -0.35400
N371        N  0.60099019  0.68611200  0.84526592    -0.27600
C372        C  0.58572062  0.69386869  0.82880074    -0.02800
C373        C  0.57403073  0.71323699  0.83788727     0.05800
C374        C  0.58309770  0.71653586  0.86037260     0.03900
H375        H  0.58357040  0.68620329  0.81136981     0.09000
H376        H  0.57826495  0.73015294  0.87292360     0.07800
N377        N  0.61775643  0.69281237  0.10470200    -0.26600
N378        N  0.61367867  0.70496877  0.08517377    -0.34400
C379        C  0.59609118  0.72050386  0.08914431     0.01800
C380        C  0.58868101  0.71804476  0.11230506     0.07800
C381        C  0.60282595  0.70037366  0.12167192    -0.05300
H382        H  0.58908545  0.73254045  0.07604912     0.08400
H383        H  0.60197685  0.69320616  0.13937731     0.09600
Cu384      Cu  0.63083359  0.69905849  0.05348988     0.44200
Cu385      Cu  0.64245007  0.66556318  0.10698123     0.42000
Cu386      Cu  0.67109190  0.64982756  0.05186435     0.43900
N387        N  0.64676865  0.68698588  0.02294650    -0.34000
N388        N  0.66150029  0.66885906  0.02236275    -0.28200
C389        C  0.66663863  0.66368264  0.99973892    -0.04300
C390        C  0.65442992  0.67926333  0.98544873     0.07900
C391        C  0.64208995  0.69386726  0.00069757     0.01700
H392        H  0.67733316  0.64882959  0.99414843     0.09300
H393        H  0.62953565  0.70752906  0.99600511     0.08400
N394        N  0.67602182  0.63163955  0.08299870    -0.35400
N395        N  0.66601662  0.63748806  0.10333146    -0.27600
C396        C  0.67275419  0.62185192  0.11990667    -0.02800
C397        C  0.68754188  0.60527090  0.10940688     0.05800
C398        C  0.68911567  0.61207829  0.08597256     0.03900
H399        H  0.66714507  0.62241209  0.13820848     0.09000
H400        H  0.69872597  0.60323807  0.07194702     0.07800
N401        N  0.34647142  0.68815973  0.83595438    -0.26600
N402        N  0.35103786  0.69911339  0.85612266    -0.34400
C403        C  0.36654405  0.71656734  0.85220829     0.01800
C404        C  0.37231046  0.71648961  0.82843493     0.07800
C405        C  0.35918990  0.69828205  0.81864663    -0.05300
H406        H  0.37354604  0.72805439  0.86583064     0.08400
H407        H  0.35945616  0.69232893  0.80043523     0.09600
Cu408      Cu  0.33826467  0.68864184  0.88850582     0.44200
Cu409      Cu  0.32401392  0.65933404  0.83311024     0.42000
Cu410      Cu  0.30198546  0.63650067  0.88870604     0.43900
N411        N  0.32565181  0.67342219  0.91897660    -0.34000
N412        N  0.31210948  0.65445446  0.91915079    -0.28200
C413        C  0.30700376  0.64899591  0.94171315    -0.04300
C414        C  0.31807572  0.66521596  0.95632272     0.07900
C415        C  0.32977222  0.68041738  0.94134754     0.01700
H416        H  0.29640448  0.63407388  0.94705825     0.09300
H417        H  0.34056652  0.69538662  0.94628053     0.08400
N418        N  0.29340033  0.62234342  0.85585959    -0.35400
N419        N  0.30102795  0.63089606  0.83550979    -0.27600
C420        C  0.29104153  0.61867425  0.81763914    -0.02800
C421        C  0.27645464  0.60152994  0.82719003     0.05800
C422        C  0.27855158  0.60435426  0.85148417     0.03900
H423        H  0.29371497  0.62242047  0.79906673     0.09000
H424        H  0.26957712  0.59432824  0.86503116     0.07800
N425        N  0.35528570  0.67654979  0.10232501    -0.26600
N426        N  0.36000669  0.68928899  0.08332916    -0.34400
C427        C  0.37590552  0.70597740  0.08912711     0.01800
C428        C  0.38149861  0.70354921  0.11284217     0.07800
C429        C  0.36817536  0.68470552  0.12065026    -0.05300
H430        H  0.38279676  0.71899654  0.07701278     0.08400
H431        H  0.36744218  0.67781882  0.13847338     0.09600
Cu432      Cu  0.34460313  0.68372189  0.05035537     0.44200
Cu433      Cu  0.33014107  0.64993187  0.10325809     0.42000
Cu434      Cu  0.29757246  0.64069739  0.04937852     0.43900
N435        N  0.32765378  0.67265678  0.01961876    -0.34000
N436        N  0.31068895  0.65662571  0.01947588    -0.28200
C437        C  0.30446208  0.65186322  0.99702936    -0.04300
C438        C  0.31807006  0.66563353  0.98228853     0.07900
C439        C  0.33254730  0.67870481  0.99713357     0.01700
H440        H  0.29130878  0.63897708  0.99187177     0.09300
H441        H  0.34616776  0.69105877  0.99198621     0.08400
N442        N  0.28886287  0.62482748  0.08088549    -0.35400
N443        N  0.30121102  0.62755097  0.10058797    -0.27600
C444        C  0.29145093  0.61426760  0.11764583    -0.02800
C445        C  0.27196131  0.60271478  0.10818854     0.05800
C446        C  0.27085566  0.60991734  0.08484279     0.03900
H447        H  0.29816308  0.61297873  0.13555048     0.09000
H448        H  0.25795896  0.60468426  0.07164578     0.07800
O449        O  0.50689598  0.75873115  0.18196569    -0.72200
O450        O  0.45640526  0.79205696  0.21889955    -0.73200
O451        O  0.45677028  0.75575204  0.18440942    -0.61800
O452        O  0.50657663  0.79472022  0.21640421    -0.70300
O453        O  0.50422616  0.82127346  0.18779536    -0.69800
O454        O  0.45302812  0.78276672  0.15640258    -0.61100
O455        O  0.45403593  0.81936606  0.19139152    -0.73600
O456        O  0.50321482  0.78499949  0.15309056    -0.72300
Cu457      Cu  0.48169815  0.77440868  0.20137918     1.04600
Cu458      Cu  0.47843402  0.80305006  0.17116570     1.04300
C459        C  0.51309379  0.76668884  0.16179205     0.94000
C460        C  0.44741172  0.81131608  0.21142157     0.93100
C461        C  0.44719252  0.76287660  0.16520967     0.85200
C462        C  0.51355852  0.81396336  0.20707973     0.91500
N463        N  0.34031839  0.31490219  0.84874122    -0.26600
N464        N  0.34284247  0.30092494  0.86724461    -0.34400
C465        C  0.35983453  0.28491139  0.86254797     0.01800
C466        C  0.36838311  0.28906360  0.83998119     0.07800
C467        C  0.35561526  0.30820710  0.83177513    -0.05300
H468        H  0.36545999  0.27121253  0.87460862     0.08400
H469        H  0.35699080  0.31636339  0.81454471     0.09600
Cu470      Cu  0.32288259  0.30442361  0.89779650     0.44200
Cu471      Cu  0.31553662  0.34174726  0.84697643     0.42000
Cu472      Cu  0.27679373  0.34964233  0.89729242     0.43900
N473        N  0.30236329  0.31328079  0.92687431    -0.34000
N474        N  0.28565460  0.32968660  0.92676559    -0.28200
C475        C  0.27723437  0.33234660  0.94888439    -0.04300
C476        C  0.28927253  0.31692513  0.96356586     0.07900
C477        C  0.30500224  0.30507677  0.94902238     0.01700
H478        H  0.26408312  0.34528686  0.95403517     0.09300
H479        H  0.31816462  0.29220737  0.95428459     0.08400
N480        N  0.27387970  0.36897876  0.86628452    -0.35400
N481        N  0.28836210  0.36624446  0.84809013    -0.27600
C482        C  0.28218918  0.38141201  0.83092600    -0.02800
C483        C  0.26287538  0.39434667  0.83865117     0.05800
C484        C  0.25804469  0.38599819  0.86114492     0.03900
H485        H  0.29096051  0.38273598  0.81395823     0.09000
H486        H  0.24414594  0.39194311  0.87294261     0.07800
N487        N  0.33083392  0.30700114  0.10699623    -0.26600
N488        N  0.33368335  0.29310199  0.08840299    -0.34400
C489        C  0.35126897  0.27768697  0.09294935     0.01800
C490        C  0.36004041  0.28219092  0.11546003     0.07800
C491        C  0.34660441  0.30091744  0.12378983    -0.05300
H492        H  0.35741103  0.26438097  0.08063711     0.08400
H493        H  0.34847596  0.30982461  0.14064667     0.09600
Cu494      Cu  0.31483142  0.29717138  0.05706796     0.44200
Cu495      Cu  0.30601264  0.33394081  0.10855505     0.42000
Cu496      Cu  0.26948645  0.34277342  0.05671709     0.43900
N497        N  0.29698885  0.30819095  0.02686658    -0.34000
N498        N  0.28044221  0.32474806  0.02680937    -0.28200
C499        C  0.27437554  0.32961310  0.00432158    -0.04300
C500        C  0.28780984  0.31551258  0.98950647     0.07900
C501        C  0.30188283  0.30208299  0.00437276     0.01700
H502        H  0.26209738  0.34335431  0.99916047     0.09300
H503        H  0.31560980  0.28974438  0.99923256     0.08400
N504        N  0.26581492  0.36210590  0.08755940    -0.35400
N505        N  0.27960222  0.35927923  0.10630066    -0.27600
C506        C  0.27387712  0.37554458  0.12267301    -0.02800
C507        C  0.25558666  0.38916928  0.11378903     0.05800
C508        C  0.25085730  0.38016909  0.09152958     0.03900
H509        H  0.28255073  0.37747337  0.13966674     0.09000
H510        H  0.23799716  0.38669776  0.07889573     0.07800
N511        N  0.83633595  0.31133339  0.61894081    -0.26600
N512        N  0.85577820  0.29928834  0.61388104    -0.34400
C513        C  0.85131924  0.28493445  0.59544641     0.01800
C514        C  0.82794834  0.28814999  0.58862981     0.07800
C515        C  0.81898518  0.30500785  0.60391074    -0.05300
H516        H  0.86415460  0.27309974  0.58754839     0.08400
H517        H  0.80126482  0.31238030  0.60391363     0.09600
Cu518      Cu  0.88770111  0.30386748  0.63150100     0.44200
Cu519      Cu  0.83443128  0.33636734  0.64537446     0.42000
Cu520      Cu  0.88810386  0.34746859  0.67860143     0.43900
N521        N  0.91807406  0.31453764  0.64920220    -0.34000
N522        N  0.91819583  0.33040430  0.66638879    -0.28200
C523        C  0.94076484  0.33496478  0.67257965    -0.04300
C524        C  0.95553994  0.32137223  0.65856327     0.07900
C525        C  0.94057649  0.30857298  0.64400514     0.01700
H526        H  0.94600754  0.34798980  0.68557866     0.09300
H527        H  0.94564864  0.29658152  0.62996661     0.08400
N528        N  0.85660007  0.36542834  0.68408721    -0.35400
N529        N  0.83715248  0.36157118  0.67156471    -0.27600
C530        C  0.82038141  0.37710997  0.67805867    -0.02800
C531        C  0.82972671  0.39135016  0.69554713     0.05800
C532        C  0.85267882  0.38349515  0.69903658     0.03900
H533        H  0.80282121  0.37818737  0.67036702     0.09000
H534        H  0.86575532  0.39080728  0.71099898     0.07800
N535        N  0.10006678  0.31243763  0.61494411    -0.26600
N536        N  0.08050306  0.30050356  0.61028652    -0.34400
C537        C  0.08488531  0.28504309  0.59271669     0.01800
C538        C  0.10835681  0.28740491  0.58587204     0.07800
C539        C  0.11739860  0.30495936  0.60038807    -0.05300
H540        H  0.07191058  0.27300268  0.58545330     0.08400
H541        H  0.13521679  0.31199592  0.60019072     0.09600
Cu542      Cu  0.04863853  0.30651327  0.62757672     0.44200
Cu543      Cu  0.10222291  0.33826830  0.64098979     0.42000
Cu544      Cu  0.04930016  0.34955306  0.67559674     0.43900
N545        N  0.01873323  0.31701564  0.64617295    -0.34000
N546        N  0.01891978  0.33262387  0.66361122    -0.28200
C547        C  0.99653018  0.33620049  0.67104413    -0.04300
C548        C  0.98159530  0.32217357  0.65764250     0.07900
C549        C  0.99625366  0.31024564  0.64207239     0.01700
H550        H  0.99148396  0.34852916  0.68479489     0.09300
H551        H  0.99096307  0.29798646  0.62835857     0.08400
N552        N  0.08162818  0.36591882  0.68192480    -0.35400
N553        N  0.10072142  0.36218461  0.66886971    -0.27600
C554        C  0.11825710  0.37629356  0.67655221    -0.02800
C555        C  0.10993561  0.38953405  0.69546626     0.05800
C556        C  0.08660325  0.38238864  0.69838808     0.03900
H557        H  0.13567608  0.37719893  0.66859620     0.09000
H558        H  0.07405121  0.38885918  0.71135033     0.07800
O559        O  0.22060173  0.47264325  0.76523241    -0.72200
O560        O  0.18389274  0.51996519  0.72704663    -0.73200
O561        O  0.22168428  0.52248963  0.76037262    -0.61800
O562        O  0.18300700  0.47014955  0.73202354    -0.70300
O563        O  0.15611738  0.47461383  0.76037879    -0.69800
O564        O  0.19674170  0.52487786  0.79027098    -0.61100
O565        O  0.15876931  0.52458459  0.75694432    -0.73600
O566        O  0.19369540  0.47520123  0.79377293    -0.72300
Cu567      Cu  0.20318826  0.49621413  0.74514142     1.04600
Cu568      Cu  0.17540580  0.49997580  0.77633851     1.04300
C569        C  0.21270228  0.46620108  0.78539177     0.94000
C570        C  0.16570104  0.52994307  0.73613117     0.93100
C571        C  0.21574106  0.53180790  0.78012233     0.85200
C572        C  0.16346910  0.46414683  0.74169439     0.91500
N573        N  0.84126369  0.63143687  0.65833558    -0.26600
N574        N  0.86131042  0.62322681  0.66729717    -0.34400
C575        C  0.85626520  0.60656939  0.68340987     0.01800
C576        C  0.83185433  0.60424583  0.68463652     0.07800
C577        C  0.82295549  0.62039993  0.66860618    -0.05300
H578        H  0.86939858  0.59640359  0.69296166     0.08400
H579        H  0.80451152  0.62349242  0.66425796     0.09600
Cu580      Cu  0.89445349  0.63474093  0.65674590     0.44200
Cu581      Cu  0.83925165  0.65624653  0.63163770     0.42000
Cu582      Cu  0.89396088  0.68346806  0.61504118     0.43900
N583        N  0.92470410  0.65072163  0.64376544    -0.34000
N584        N  0.92445740  0.66858302  0.62878997    -0.28200
C585        C  0.94688722  0.67460461  0.62362583    -0.04300
C586        C  0.96192950  0.65983414  0.63596798     0.07900
C587        C  0.94732844  0.64492607  0.64857796     0.01700
H588        H  0.95180905  0.68851608  0.61155593     0.09300
H589        H  0.95268923  0.63075620  0.66019941     0.08400
N590        N  0.86156294  0.69292595  0.60079871    -0.35400
N591        N  0.84150277  0.68226079  0.60616953    -0.27600
C592        C  0.82396127  0.69121821  0.59276187    -0.02800
C593        C  0.83342077  0.70854321  0.57836027     0.05800
C594        C  0.85731995  0.70917755  0.58407862     0.03900
H595        H  0.80575306  0.68525969  0.59320134     0.09000
H596        H  0.87074490  0.72042954  0.57647529     0.07800
N597        N  0.10875014  0.68316958  0.60590888    -0.26600
N598        N  0.08812700  0.69150372  0.59846685    -0.34400
C599        C  0.09181774  0.70676803  0.58073532     0.01800
C600        C  0.11595250  0.70832387  0.57676306     0.07800
C601        C  0.12615991  0.69313832  0.59311672    -0.05300
H602        H  0.07785292  0.71556209  0.57098426     0.08400
H603        H  0.14484521  0.68929435  0.59527716     0.09600
Cu604      Cu  0.05556503  0.68134415  0.61156336     0.44200
Cu605      Cu  0.11207769  0.65741148  0.63200523     0.42000
Cu606      Cu  0.05607281  0.63459484  0.65375313     0.43900
N607        N  0.02510407  0.66755357  0.62620365    -0.34000
N608        N  0.02534105  0.65009107  0.64159585    -0.28200
C609        C  0.00294508  0.64473042  0.64754593    -0.04300
C610        C  0.98792126  0.65959692  0.63528306     0.07900
C611        C  0.00251664  0.67386292  0.62192117     0.01700
H612        H  0.99803192  0.63099440  0.65981979     0.09300
H613        H  0.99717258  0.68765875  0.60984720     0.08400
N614        N  0.08871965  0.62233568  0.66461844    -0.35400
N615        N  0.10927331  0.63059529  0.65703828    -0.27600
C616        C  0.12689487  0.61836509  0.66750020    -0.02800
C617        C  0.11677689  0.60178178  0.68225475     0.05800
C618        C  0.09262694  0.60472375  0.67996963     0.03900
H619        H  0.14560765  0.62098836  0.66423428     0.09000
H620        H  0.07888496  0.59457553  0.68852674     0.07800
O621        O  0.18959933  0.81791232  0.44454622    -0.72200
O622        O  0.15421581  0.78110263  0.49399243    -0.73200
O623        O  0.18926171  0.81725661  0.49448482    -0.61800
O624        O  0.15423168  0.78229015  0.44374886    -0.70300
O625        O  0.18210889  0.75468745  0.44355686    -0.69800
O626        O  0.21762955  0.79018138  0.49368153    -0.61100
O627        O  0.18287513  0.75463006  0.49386753    -0.73600
O628        O  0.21727787  0.78995913  0.44371517    -0.72300
Cu629      Cu  0.17079472  0.80058189  0.46920082     1.04600
Cu630      Cu  0.20089606  0.77140336  0.46868622     1.04300
C631        C  0.20910951  0.80963643  0.43650990     0.94000
C632        C  0.16311094  0.76197691  0.50205654     0.93100
C633        C  0.20917245  0.80943476  0.50191960     0.85200
C634        C  0.16258852  0.76299518  0.43556535     0.91500
N635        N  0.83688799  0.67762475  0.34211954    -0.26600
N636        N  0.85723599  0.68767093  0.34786744    -0.34400
C637        C  0.85345759  0.70348012  0.36520696     0.01800
C638        C  0.82961802  0.70319840  0.37070963     0.07800
C639        C  0.81957841  0.68663696  0.35581193    -0.05300
H640        H  0.86705529  0.71428665  0.37326321     0.08400
H641        H  0.80107210  0.68172314  0.35480055     0.09600
Cu642      Cu  0.88923286  0.67905626  0.33234396     0.44200
Cu643      Cu  0.83383917  0.65263380  0.31552929     0.42000
Cu644      Cu  0.88876146  0.63539615  0.28585795     0.43900
N645        N  0.91946719  0.66671185  0.31585218    -0.34000
N646        N  0.91945450  0.65067894  0.29883984    -0.28200
C647        C  0.94198574  0.64621328  0.29237594    -0.04300
C648        C  0.95677557  0.66014114  0.30604246     0.07900
C649        C  0.94192761  0.67289552  0.32070582     0.01700
H650        H  0.94716913  0.63363436  0.27890747     0.09300
H651        H  0.94701865  0.68559008  0.33409040     0.08400
N652        N  0.85559988  0.62235470  0.27719055    -0.35400
N653        N  0.83573186  0.62848739  0.28804584    -0.27600
C654        C  0.81765560  0.61609045  0.27880786    -0.02800
C655        C  0.82659690  0.60149423  0.26132678     0.05800
C656        C  0.85067674  0.60592333  0.26073599     0.03900
H657        H  0.79942807  0.61731077  0.28467340     0.09000
H658        H  0.86375977  0.59733638  0.24965905     0.07800
N659        N  0.10298098  0.68654072  0.33446306    -0.26600
N660        N  0.08266466  0.69565568  0.34177611    -0.34400
C661        C  0.08710725  0.71167816  0.35879871     0.01800
C662        C  0.11136510  0.71253340  0.36228360     0.07800
C663        C  0.12088470  0.69637563  0.34664071    -0.05300
H664        H  0.07366763  0.72127758  0.36853208     0.08400
H665        H  0.13938658  0.69162669  0.34473047     0.09600
Cu666      Cu  0.05000439  0.68452913  0.32924818     0.44200
Cu667      Cu  0.10553559  0.66043820  0.30914865     0.42000
Cu668      Cu  0.05107753  0.64039421  0.28231631     0.43900
N669        N  0.01996615  0.66996345  0.31400759    -0.34000
N670        N  0.02032890  0.65403619  0.29687453    -0.28200
C671        C  0.99791921  0.64814699  0.29127561    -0.04300
C672        C  0.98278642  0.66099854  0.30558346     0.07900
C673        C  0.99732129  0.67463568  0.31976767     0.01700
H674        H  0.99307057  0.63532237  0.27792428     0.09300
H675        H  0.99190144  0.68694114  0.33339544     0.08400
N676        N  0.08423614  0.62803880  0.27274032    -0.35400
N677        N  0.10409111  0.63505873  0.28302216    -0.27600
C678        C  0.12240478  0.62287823  0.27395624    -0.02800
C679        C  0.11361697  0.60761729  0.25706595     0.05800
C680        C  0.08939327  0.61128011  0.25667412     0.03900
H681        H  0.14069184  0.62476388  0.27947864     0.09000
H682        H  0.07643659  0.60198670  0.24605081     0.07800
N683        N  0.84131723  0.32586344  0.35439022    -0.26600
N684        N  0.86139031  0.31519928  0.36024284    -0.34400
C685        C  0.85667907  0.29834081  0.37630047     0.01800
C686        C  0.83254094  0.29850627  0.38080186     0.07800
C687        C  0.82339209  0.31617241  0.36664351    -0.05300
H688        H  0.86987203  0.28701448  0.38433248     0.08400
H689        H  0.80501089  0.32154738  0.36530321     0.09600
Cu690      Cu  0.89435062  0.32421066  0.34630140     0.44200
Cu691      Cu  0.83863519  0.35269615  0.32951729     0.42000
Cu692      Cu  0.89231640  0.36670934  0.29865446     0.43900
N693        N  0.92432097  0.33682740  0.32894068    -0.34000
N694        N  0.92330801  0.35227868  0.31149547    -0.28200
C695        C  0.94540107  0.35744153  0.30435053    -0.04300
C696        C  0.96115924  0.34462622  0.31791156     0.07900
C697        C  0.94724035  0.33169620  0.33332125     0.01700
H698        H  0.94962436  0.36989932  0.29053665     0.09300
H699        H  0.95330054  0.31976894  0.34696970     0.08400
N700        N  0.85986057  0.38105425  0.28999398    -0.35400
N701        N  0.84014889  0.37662176  0.30175311    -0.27600
C702        C  0.82231957  0.38911915  0.29205747    -0.02800
C703        C  0.83125560  0.40188732  0.27315284     0.05800
C704        C  0.85513966  0.39623413  0.27240664     0.03900
H705        H  0.80418215  0.38887286  0.29828249     0.09000
H706        H  0.86814834  0.40248000  0.25985650     0.07800
N707        N  0.10889490  0.32973605  0.34706492    -0.26600
N708        N  0.08900862  0.31912117  0.35322695    -0.34400
C709        C  0.09379674  0.30280200  0.36971737     0.01800
C710        C  0.11785411  0.30321534  0.37419288     0.07800
C711        C  0.12695050  0.32050888  0.35961793    -0.05300
H712        H  0.08069638  0.29166235  0.37802754     0.08400
H713        H  0.14528357  0.32591391  0.35819587     0.09600
Cu714      Cu  0.05622078  0.32757415  0.33952199     0.44200
Cu715      Cu  0.11018009  0.35596072  0.32165012     0.42000
Cu716      Cu  0.05383421  0.37263280  0.29447758     0.43900
N717        N  0.02508284  0.33950009  0.32463523    -0.34000
N718        N  0.02398653  0.35597283  0.30817070    -0.28200
C719        C  0.00105194  0.36007170  0.30291656    -0.04300
C720        C  0.98719370  0.34550876  0.31682806     0.07900
C721        C  0.00301184  0.33270789  0.33034266     0.01700
H722        H  0.99494016  0.37300753  0.29025460     0.09300
H723        H  0.99884485  0.31968430  0.34363686     0.08400
N724        N  0.08655225  0.38653274  0.28472393    -0.35400
N725        N  0.10687265  0.38064993  0.29487047    -0.27600
C726        C  0.12454386  0.39290626  0.28480371    -0.02800
C727        C  0.11501411  0.40715751  0.26733759     0.05800
C728        C  0.09084646  0.40262112  0.26781254     0.03900
H729        H  0.14298520  0.39164730  0.28999047     0.09000
H730        H  0.07736040  0.41035898  0.25660050     0.07800
O731        O  0.18625167  0.48006366  0.21493735    -0.72200
O732        O  0.22181034  0.52777303  0.17733730    -0.73200
O733        O  0.18693715  0.52983153  0.21314265    -0.61800
O734        O  0.22071436  0.47780222  0.17871692    -0.70300
O735        O  0.19186223  0.47735589  0.15192689    -0.69800
O736        O  0.15885517  0.52982154  0.18557677    -0.61100
O737        O  0.19388062  0.52721062  0.14953604    -0.73600
O738        O  0.15726015  0.48027666  0.18822414    -0.72300
Cu739      Cu  0.20496087  0.50390597  0.19694155     1.04600
Cu740      Cu  0.17450569  0.50367203  0.16780847     1.04300
C741        C  0.16607958  0.47285360  0.20769653     0.94000
C742        C  0.21354754  0.53503557  0.15762041     0.93100
C743        C  0.16738581  0.53784068  0.20491357     0.85200
C744        C  0.21130453  0.46909084  0.16005235     0.91500
C745        C  0.12797224  0.42391372  0.25170402    -0.04600
C746        C  0.14919409  0.41689413  0.24020093    -0.01800
C747        C  0.16175282  0.43299990  0.22597823     0.03200
C748        C  0.15273877  0.45588821  0.22231101    -0.04600
C749        C  0.13146433  0.46288500  0.23341072    -0.01700
C750        C  0.11937611  0.44715480  0.24843672     0.03200
C751        C  0.15787104  0.39290676  0.24229718     0.37900
C752        C  0.12244601  0.48661893  0.23002053     0.37900
C753        C  0.09883331  0.45545120  0.26149828     0.36300
C754        C  0.18387076  0.42593836  0.21483819     0.36300
N755        N  0.08255424  0.46220181  0.27200591    -0.38500
N756        N  0.20156445  0.42038920  0.20604081    -0.38500
N757        N  0.11522462  0.50552013  0.22728015    -0.38000
N758        N  0.16487251  0.37378839  0.24385941    -0.38000
C759        C  0.15403167  0.55608806  0.21824961    -0.04600
C760        C  0.14310344  0.57510160  0.20621511    -0.01800
C761        C  0.12974926  0.59190937  0.21892789     0.03200
C762        C  0.12718891  0.58978914  0.24364353    -0.04600
C763        C  0.13776400  0.57072186  0.25565345    -0.01700
C764        C  0.15121415  0.55395342  0.24305186     0.03200
C765        C  0.14595729  0.57776420  0.18082690     0.37900
C766        C  0.13397493  0.56782827  0.28089564     0.37900
C767        C  0.16114952  0.53390964  0.25557226     0.36300
C768        C  0.11901925  0.61168968  0.20665708     0.36300
N769        N  0.16900990  0.51790036  0.26554372    -0.38500
N770        N  0.11046972  0.62748978  0.19691344    -0.38500
N771        N  0.13081678  0.56545914  0.30098847    -0.38000
N772        N  0.14813406  0.57987752  0.16057082    -0.38000
C773        C  0.12424786  0.72553825  0.38099367    -0.04600
C774        C  0.12553545  0.75031769  0.38038051    -0.01800
C775        C  0.13838547  0.76258855  0.39794879     0.03200
C776        C  0.14945299  0.75012126  0.41668877    -0.04600
C777        C  0.14771151  0.72525703  0.41738262    -0.01700
C778        C  0.13542036  0.71303987  0.39945170     0.03200
C779        C  0.11406655  0.76315048  0.36133054     0.37900
C780        C  0.15766676  0.71209544  0.43700564     0.37900
C781        C  0.13366677  0.68754030  0.40038960     0.36300
C782        C  0.14087496  0.78796312  0.39612505     0.36300
N783        N  0.13226679  0.66721864  0.40110179    -0.38500
N784        N  0.14288982  0.80818830  0.39460219    -0.38500
N785        N  0.16544978  0.70135434  0.45257056    -0.38000
N786        N  0.10487143  0.77337066  0.34615984    -0.38000
C787        C  0.12796297  0.72205612  0.55778048    -0.04600
C788        C  0.14491518  0.71112361  0.54302087    -0.01800
C789        C  0.15660704  0.72409754  0.52525943     0.03200
C790        C  0.15068515  0.74816473  0.52110352    -0.04600
C791        C  0.13304782  0.75884467  0.53563173    -0.01700
C792        C  0.12213623  0.74597683  0.55401554     0.03200
C793        C  0.14968971  0.68606698  0.54530736     0.37900
C794        C  0.12611619  0.78326213  0.53229632     0.37900
C795        C  0.10533988  0.75774456  0.56956646     0.36300
C796        C  0.17471029  0.71212204  0.51143162     0.36300
N797        N  0.09198032  0.76721462  0.58191352    -0.38500
N798        N  0.18934692  0.70241254  0.50083538    -0.38500
N799        N  0.12027483  0.80264747  0.52969786    -0.38000
N800        N  0.15347142  0.66608831  0.54694949    -0.38000
C801        C  0.15268315  0.54814965  0.72251137    -0.04600
C802        C  0.14940694  0.57092019  0.73219270    -0.01800
C803        C  0.13752518  0.58844567  0.71906074     0.03200
C804        C  0.12901107  0.58335820  0.69614723    -0.04600
C805        C  0.13165590  0.56048108  0.68668730    -0.01700
C806        C  0.14355927  0.54292025  0.69977932     0.03200
C807        C  0.15888340  0.57661027  0.75538609     0.37900
C808        C  0.12185235  0.55500136  0.66355648     0.37900
C809        C  0.14574476  0.51929401  0.69014257     0.36300
C810        C  0.13369652  0.61162501  0.72927859     0.36300
N811        N  0.14739080  0.50044427  0.68244326    -0.38500
N812        N  0.13052926  0.63005082  0.73752695    -0.38500
N813        N  0.11387820  0.55072578  0.64515049    -0.38000
N814        N  0.16644404  0.58131036  0.77384955    -0.38000
C815        C  0.12307433  0.40825905  0.70869594    -0.04600
C816        C  0.11253681  0.43058004  0.71288258    -0.01800
C817        C  0.12550985  0.44859953  0.72431704     0.03200
C818        C  0.14932001  0.44475562  0.73108018    -0.04600
C819        C  0.15980318  0.42245592  0.72718902    -0.01700
C820        C  0.14665101  0.40419443  0.71641288     0.03200
C821        C  0.08877637  0.43560632  0.70434924     0.37900
C822        C  0.18407527  0.41812793  0.73469103     0.37900
C823        C  0.15728661  0.38100706  0.71393828     0.36300
C824        C  0.11466288  0.47151311  0.72814616     0.36300
N825        N  0.16579464  0.36252016  0.71203849    -0.38500
N826        N  0.10605238  0.48979722  0.73121499    -0.38500
N827        N  0.20344267  0.41470047  0.74061515    -0.38000
N828        N  0.06985031  0.43973098  0.69751991    -0.38000
C829        C  0.24422613  0.40978289  0.12526886    -0.04600
C830        C  0.21965357  0.40963803  0.12998825    -0.01800
C831        C  0.20890476  0.42906768  0.14129309     0.03200
C832        C  0.22268427  0.44883218  0.14791660    -0.04600
C833        C  0.24725299  0.44904383  0.14297684    -0.01700
C834        C  0.25796289  0.42959946  0.13161968     0.03200
C835        C  0.20551049  0.38915428  0.12391820     0.37900
C836        C  0.26142028  0.46957164  0.14884008     0.37900
C837        C  0.28298602  0.43036012  0.12567000     0.36300
C838        C  0.18378483  0.42824884  0.14691606     0.36300
N839        N  0.30291564  0.43097996  0.12081850    -0.38500
N840        N  0.16377457  0.42762288  0.15143813    -0.38500
N841        N  0.27271640  0.48594318  0.15350598    -0.38000
N842        N  0.19419402  0.37283489  0.11912349    -0.38000
C843        C  0.24996608  0.41293898  0.82534298    -0.04600
C844        C  0.26242408  0.43234075  0.81590110    -0.01800
C845        C  0.25022158  0.44987849  0.80306248     0.03200
C846        C  0.22554296  0.44793994  0.79914789    -0.04600
C847        C  0.21310910  0.42845031  0.80843340    -0.01700
C848        C  0.22523291  0.41113334  0.82164557     0.03200
C849        C  0.28775096  0.43467904  0.81991829     0.37900
C850        C  0.18797068  0.42564549  0.80356409     0.37900
C851        C  0.21232509  0.39096649  0.83062145     0.36300
C852        C  0.26298825  0.47039501  0.79471542     0.36300
N853        N  0.20200130  0.37490012  0.83777905    -0.38500
N854        N  0.27326176  0.48676646  0.78823041    -0.38500
N855        N  0.16795542  0.42338385  0.79958176    -0.38000
N856        N  0.30795934  0.43656029  0.82302636    -0.38000
C857        C  0.22708584  0.55283918  0.14423902    -0.04600
C858        C  0.23605382  0.54746830  0.12156336    -0.01800
C859        C  0.25061331  0.56378609  0.10969198     0.03200
C860        C  0.25602273  0.58576351  0.12033427    -0.04600
C861        C  0.24643005  0.59131482  0.14281085    -0.01700
C862        C  0.23217997  0.57482903  0.15477150     0.03200
C863        C  0.23127374  0.52464508  0.11094741     0.37900
C864        C  0.25069111  0.61419889  0.15350396     0.37900
C865        C  0.22244738  0.58061885  0.17786557     0.36300
C866        C  0.26098693  0.55731483  0.08708205     0.36300
N867        N  0.21468846  0.58517955  0.19628303    -0.38500
N868        N  0.26927534  0.55211017  0.06906800    -0.38500
N869        N  0.25406638  0.63242739  0.16208645    -0.38000
N870        N  0.22751693  0.50642344  0.10251485    -0.38000
C871        C  0.39773556  0.71854474  0.12705006    -0.04600
C872        C  0.39313542  0.74287712  0.12961219    -0.01800
C873        C  0.40898391  0.75732914  0.14243914     0.03200
C874        C  0.42969160  0.74756038  0.15272998    -0.04600
C875        C  0.43390577  0.72300665  0.15061971    -0.01700
C876        C  0.41795222  0.70860080  0.13790718     0.03200
C877        C  0.37162444  0.75291751  0.11966968     0.37900
C878        C  0.45513512  0.71252687  0.16072789     0.37900
C879        C  0.42282929  0.68360688  0.13530443     0.36300
C880        C  0.40342314  0.78209406  0.14572607     0.36300
N881        N  0.42675305  0.66368456  0.13324385    -0.38500
N882        N  0.39885917  0.80181549  0.14837152    -0.38500
N883        N  0.47203093  0.70415628  0.16882745    -0.38000
N884        N  0.35440454  0.76082424  0.11178528    -0.38000
C885        C  0.26076864  0.58458033  0.81433111    -0.04600
C886        C  0.26971902  0.57062525  0.79563170    -0.01800
C887        C  0.25508013  0.55387940  0.78416296     0.03200
C888        C  0.23111687  0.55050873  0.79147477    -0.04600
C889        C  0.22218046  0.56504657  0.81005195    -0.01700
C890        C  0.23678789  0.58208776  0.82103155     0.03200
C891        C  0.29437616  0.57287628  0.78856524     0.37900
C892        C  0.19784888  0.56296581  0.81816032     0.37900
C893        C  0.22670461  0.59777522  0.83874905     0.36300
C894        C  0.26534531  0.53990578  0.76517903     0.36300
N895        N  0.21864095  0.61032367  0.85279691    -0.38500
N896        N  0.27371509  0.52893061  0.75002146    -0.38500
N897        N  0.17853939  0.56144015  0.82492647    -0.38000
N898        N  0.31399540  0.57462230  0.78282176    -0.38000
C899        C  0.53239531  0.75481441  0.14869407    -0.04600
C900        C  0.55543975  0.75413748  0.15845728    -0.01800
C901        C  0.57390669  0.74252600  0.14631134     0.03200
C902        C  0.56937132  0.73118499  0.12446684    -0.04600
C903        C  0.54631085  0.73220471  0.11452494    -0.01700
C904        C  0.52788609  0.74403183  0.12662586     0.03200
C905        C  0.56027411  0.76584042  0.18083605     0.37900
C906        C  0.54123255  0.72041182  0.09227106     0.37900
C907        C  0.50404833  0.74432069  0.11685476     0.36300
C908        C  0.59779176  0.74305219  0.15591957     0.36300
N909        N  0.48500362  0.74451140  0.10916206    -0.38500
N910        N  0.61686017  0.74356959  0.16352730    -0.38500
N911        N  0.53711811  0.71105083  0.07450654    -0.38000
N912        N  0.56413523  0.77514432  0.19868468    -0.38000
C913        C  0.81353753  0.58348709  0.24748996    -0.04600
C914        C  0.81386004  0.58402317  0.22251314    -0.01800
C915        C  0.80143244  0.56687519  0.20935572     0.03200
C916        C  0.78925194  0.54853160  0.22109235    -0.04600
C917        C  0.78925290  0.54788324  0.24616766    -0.01700
C918        C  0.80105156  0.56547606  0.25926881     0.03200
C919        C  0.82660487  0.60253371  0.21028192     0.37900
C920        C  0.77805409  0.52855794  0.25866526     0.37900
C921        C  0.80112337  0.56443043  0.28495114     0.36300
C922        C  0.80057957  0.56872340  0.18375099     0.36300
N923        N  0.80113725  0.56359467  0.30542243    -0.38500
N924        N  0.79990825  0.57036436  0.16334599    -0.38500
N925        N  0.76918535  0.51314325  0.26865169    -0.38000
N926        N  0.83684693  0.61721412  0.20049489    -0.38000
C927        C  0.79263775  0.44861635  0.22650202    -0.04600
C928        C  0.78317605  0.42641397  0.23232684    -0.01800
C929        C  0.79597673  0.41096906  0.24716036     0.03200
C930        C  0.81805768  0.41793114  0.25690389    -0.04600
C931        C  0.82746733  0.44028345  0.25098062    -0.01700
C932        C  0.81486541  0.45545144  0.23570765     0.03200
C933        C  0.76049167  0.41921128  0.22252695     0.37900
C934        C  0.84973823  0.44820266  0.26113726     0.37900
C935        C  0.82436781  0.47855067  0.23016782     0.36300
C936        C  0.78682045  0.38750008  0.25142055     0.36300
N937        N  0.83187719  0.49697775  0.22574968    -0.38500
N938        N  0.77953494  0.36875090  0.25470988    -0.38500
N939        N  0.86751889  0.45463309  0.26910637    -0.38000
N940        N  0.74238381  0.41352383  0.21472702    -0.38000
C941        C  0.69888273  0.58432323  0.12064099    -0.04600
C942        C  0.72305841  0.57914069  0.11653662    -0.01800
C943        C  0.73383716  0.55933298  0.12718697     0.03200
C944        C  0.72100410  0.54523073  0.14354925    -0.04600
C945        C  0.69651839  0.55027762  0.14712721    -0.01700
C946        C  0.68552489  0.56931341  0.13534486     0.03200
C947        C  0.73738382  0.59485218  0.10222406     0.37900
C948        C  0.68213094  0.53595940  0.16275452     0.37900
C949        C  0.66013368  0.57294779  0.13787678     0.36300
C950        C  0.75829532  0.55397362  0.12113244     0.36300
N951        N  0.63988227  0.57571730  0.13986366    -0.38500
N952        N  0.77768446  0.54971025  0.11588149    -0.38500
N953        N  0.67045748  0.52491897  0.17536808    -0.38000
N954        N  0.74891575  0.60736569  0.09093719    -0.38000
C955        C  0.70378653  0.39998360  0.12694208    -0.04600
C956        C  0.68947000  0.41895359  0.13466037    -0.01800
C957        C  0.69988736  0.43866448  0.14572734     0.03200
C958        C  0.72466884  0.43933461  0.14967754    -0.04600
C959        C  0.73886989  0.41997667  0.14252804    -0.01700
C960        C  0.72848156  0.40052943  0.13094879     0.03200
C961        C  0.66399926  0.41849119  0.13080471     0.37900
C962        C  0.76401757  0.41943072  0.14810500     0.37900
C963        C  0.74310356  0.38059110  0.12403464     0.36300
C964        C  0.68501947  0.45849550  0.15237699     0.36300
N965        N  0.75473523  0.36465410  0.11857519    -0.38500
N966        N  0.67297460  0.47419334  0.15760571    -0.38500
N967        N  0.78403688  0.41893760  0.15267271    -0.38000
N968        N  0.64367204  0.41813076  0.12789925    -0.38000
C969        C  0.14659139  0.25193884  0.52971175    -0.04600
C970        C  0.15640384  0.25330642  0.55267182    -0.01800
C971        C  0.14373303  0.26446566  0.57109381     0.03200
C972        C  0.12111398  0.27445322  0.56669098    -0.04600
C973        C  0.11107014  0.27248131  0.54375313    -0.01700
C974        C  0.12381010  0.26130408  0.52535029     0.03200
C975        C  0.17932458  0.24260066  0.55751726     0.37900
C976        C  0.08798372  0.28264958  0.53870300     0.37900
C977        C  0.11388649  0.26026596  0.50163653     0.36300
C978        C  0.15373585  0.26486846  0.59477974     0.36300
N979        N  0.10607951  0.25948291  0.48268606    -0.38500
N980        N  0.16177958  0.26511288  0.61364466    -0.38500
N981        N  0.06952863  0.29065310  0.53460354    -0.38000
N982        N  0.19756503  0.23401759  0.56138678    -0.38000
C983        C  0.15357740  0.26004675  0.42589401    -0.04600
C984        C  0.14312554  0.24964334  0.40557955    -0.01800
C985        C  0.13146058  0.26380608  0.38869054     0.03200
C986        C  0.13081298  0.28849133  0.39150685    -0.04600
C987        C  0.14177424  0.29901674  0.41131182    -0.01700
C988        C  0.15285479  0.28488781  0.42859708     0.03200
C989        C  0.14501477  0.22446961  0.40144161     0.37900
C990        C  0.14080669  0.32439517  0.41442579     0.37900
C991        C  0.16260649  0.29604026  0.44961843     0.36300
C992        C  0.12041105  0.25298901  0.36813549     0.36300
N993        N  0.17036875  0.30494579  0.46637372    -0.38500
N994        N  0.11151840  0.24441551  0.35177148    -0.38500
N995        N  0.14003040  0.34462443  0.41692623    -0.38000
N996        N  0.14650940  0.20442833  0.39792363    -0.38000
C997        C  0.52371165  0.24641410  0.79828259    -0.04600
C998        C  0.52012330  0.25459209  0.82162471    -0.01800
C999        C  0.53840390  0.26668026  0.83369101     0.03200
C1000       C  0.56040535  0.27090793  0.82239120    -0.04600
C1001       C  0.56395898  0.26253574  0.79901964    -0.01700
C1002       C  0.54572050  0.25028944  0.78707889     0.03200
C1003       C  0.49719245  0.25150137  0.83285128     0.37900
C1004       C  0.58662830  0.26587216  0.78738128     0.37900
C1005       C  0.54983760  0.24103925  0.76343993     0.36300
C1006       C  0.53408122  0.27557015  0.85740721     0.36300
N1007       N  0.55307972  0.23357029  0.74462789    -0.38500
N1008       N  0.53059425  0.28259526  0.87634620    -0.38500
N1009       N  0.60467412  0.26852989  0.77802405    -0.38000
N1010       N  0.47885326  0.24914052  0.84171264    -0.38000
C1011       C  0.42026149  0.24944104  0.79990533    -0.04600
C1012       C  0.42281214  0.27407444  0.80297613    -0.01800
C1013       C  0.40614033  0.28688613  0.81650311     0.03200
C1014       C  0.38652685  0.27533170  0.82674714    -0.04600
C1015       C  0.38391453  0.25077138  0.82369902    -0.01700
C1016       C  0.40068914  0.23788345  0.81037872     0.03200
C1017       C  0.44292119  0.28630478  0.79277121     0.37900
C1018       C  0.36346348  0.23879186  0.83353103     0.37900
C1019       C  0.39710350  0.21283658  0.80667898     0.36300
C1020       C  0.40973200  0.31187408  0.82066309     0.36300
N1021       N  0.39410201  0.19287653  0.80379336    -0.38500
N1022       N  0.41266182  0.33176776  0.82408751    -0.38500
N1023       N  0.34716640  0.22922709  0.84136560    -0.38000
N1024       N  0.45887173  0.29612066  0.78455215    -0.38000
C1025       C  0.23924522  0.15563185  0.56745113    -0.04600
C1026       C  0.21467178  0.16018568  0.56808752    -0.01800
C1027       C  0.20363466  0.17219808  0.54922351     0.03200
C1028       C  0.21727632  0.18005925  0.52979408    -0.04600
C1029       C  0.24195891  0.17554180  0.52929303    -0.01700
C1030       C  0.25289640  0.16339218  0.54809703     0.03200
C1031       C  0.20093906  0.15330176  0.58862608     0.37900
C1032       C  0.25607762  0.18270538  0.50911055     0.37900
C1033       C  0.27821915  0.15870653  0.54745745     0.36300
C1034       C  0.17839441  0.17720504  0.55029755     0.36300
N1035       N  0.29841559  0.15501255  0.54697581    -0.38500
N1036       N  0.15826721  0.18120468  0.55113154    -0.38500
N1037       N  0.26746181  0.18830636  0.49306545    -0.38000
N1038       N  0.19005773  0.14799433  0.60512062    -0.38000
C1039       C  0.38073094  0.15298529  0.69923987    -0.04600
C1040       C  0.39436788  0.17058149  0.68818798    -0.01800
C1041       C  0.41227335  0.18256807  0.70090616     0.03200
C1042       C  0.41730149  0.17667900  0.72493253    -0.04600
C1043       C  0.40364961  0.15855223  0.73572988    -0.01700
C1044       C  0.38526174  0.14723599  0.72308640     0.03200
C1045       C  0.39053870  0.17591035  0.66332347     0.37900
C1046       C  0.40804513  0.15123817  0.75994756     0.37900
C1047       C  0.37026042  0.13023605  0.73503925     0.36300
C1048       C  0.42557040  0.20068386  0.68864942     0.36300
N1049       N  0.35818576  0.11679488  0.74454201    -0.38500
N1050       N  0.43590199  0.21520842  0.67871441    -0.38500
N1051       N  0.41146192  0.14499135  0.77914532    -0.38000
N1052       N  0.38757179  0.18017044  0.64350917    -0.38000
C1053       C  0.24916652  0.84625510  0.55579349    -0.04600
C1054       C  0.26094994  0.83540399  0.53660791    -0.01800
C1055       C  0.24782338  0.82407389  0.51865405     0.03200
C1056       C  0.22277269  0.82280550  0.52012094    -0.04600
C1057       C  0.21097993  0.83425273  0.53909241    -0.01700
C1058       C  0.22415433  0.84593614  0.55680901     0.03200
C1059       C  0.28660907  0.83658453  0.53485365     0.37900
C1060       C  0.18530031  0.83385493  0.54077980     0.37900
C1061       C  0.21193480  0.85705120  0.57652411     0.36300
C1062       C  0.26012746  0.81497591  0.49797127     0.36300
N1063       N  0.20219932  0.86592044  0.59223584    -0.38500
N1064       N  0.26988276  0.80793937  0.48136637    -0.38500
N1065       N  0.16482182  0.83383030  0.54219279    -0.38000
N1066       N  0.30706783  0.83748499  0.53343738    -0.38000
C1067       C  0.52215188  0.17478990  0.72582071    -0.04600
C1068       C  0.52104025  0.17148762  0.70099613    -0.01800
C1069       C  0.53916657  0.15895513  0.68913731     0.03200
C1070       C  0.55854357  0.14960959  0.70194271    -0.04600
C1071       C  0.55965970  0.15281102  0.72670685    -0.01700
C1072       C  0.54166431  0.16547325  0.73857975     0.03200
C1073       C  0.50097665  0.18040810  0.68760131     0.37900
C1074       C  0.57981780  0.14382118  0.73992592     0.37900
C1075       C  0.54391615  0.16986725  0.76382063     0.36300
C1076       C  0.53750028  0.15505237  0.66378245     0.36300
N1077       N  0.54571571  0.17347437  0.78392199    -0.38500
N1078       N  0.53613770  0.15187588  0.64357624    -0.38500
N1079       N  0.59589340  0.13667281  0.75048500    -0.38000
N1080       N  0.48505803  0.18749853  0.67677548    -0.38000
C1081       C  0.79283873  0.25546755  0.42990779    -0.04600
C1082       C  0.80486149  0.24496534  0.41053279    -0.01800
C1083       C  0.81829242  0.25893387  0.39482872     0.03200
C1084       C  0.81923459  0.28360976  0.39783719    -0.04600
C1085       C  0.80711935  0.29416596  0.41699639    -0.01700
C1086       C  0.79425118  0.28019076  0.43311698     0.03200
C1087       C  0.80276685  0.21987365  0.40609712     0.37900
C1088       C  0.80860054  0.31943804  0.42063895     0.37900
C1089       C  0.78339277  0.29129946  0.45360392     0.36300
C1090       C  0.83071043  0.24790827  0.37520701     0.36300
N1091       N  0.77483516  0.30016703  0.46998638    -0.38500
N1092       N  0.84066089  0.23904588  0.35962623    -0.38500
N1093       N  0.80981892  0.33959254  0.42351094    -0.38000
N1094       N  0.80109404  0.19988996  0.40238774    -0.38000
C1095       C  0.79153492  0.25214936  0.53209531    -0.04600
C1096       C  0.81322119  0.26359808  0.52760799    -0.01800
C1097       C  0.82490083  0.27582184  0.54596837     0.03200
C1098       C  0.81520947  0.27611931  0.56905578    -0.04600
C1099       C  0.79331253  0.26483212  0.57340300    -0.01700
C1100       C  0.78133069  0.25321509  0.55486238     0.03200
C1101       C  0.82309325  0.26343570  0.50388176     0.37900
C1102       C  0.78350115  0.26429235  0.59713701     0.37900
C1103       C  0.75868316  0.24195110  0.55934051     0.36300
C1104       C  0.84638174  0.28885933  0.54081748     0.36300
N1105       N  0.74056709  0.23310368  0.56291580    -0.38500
N1106       N  0.86344038  0.29935872  0.53665235    -0.38500
N1107       N  0.77569203  0.26377305  0.61606789    -0.38000
N1108       N  0.83090233  0.26332505  0.48494131    -0.38000
C1109       C  0.70225103  0.15401764  0.57077311    -0.04600
C1110       C  0.68914910  0.15986116  0.55028618    -0.01800
C1111       C  0.70032721  0.17116857  0.53112281     0.03200
C1112       C  0.72458182  0.17725128  0.53247908    -0.04600
C1113       C  0.73778984  0.17105248  0.55289895    -0.01700
C1114       C  0.72666354  0.15936175  0.57190493     0.03200
C1115       C  0.66425335  0.15359462  0.54860403     0.37900
C1116       C  0.76266605  0.17735041  0.55478128     0.37900
C1117       C  0.74018432  0.15346805  0.59296631     0.36300
C1118       C  0.68707868  0.17539086  0.50952753     0.36300
N1119       N  0.75094671  0.14876942  0.60977661    -0.38500
N1120       N  0.67640865  0.17840456  0.49228865    -0.38500
N1121       N  0.78249657  0.18238105  0.55633043    -0.38000
N1122       N  0.64440040  0.14859907  0.54728935    -0.38000
C1123       C  0.69734624  0.15561189  0.38887993    -0.04600
C1124       C  0.72176762  0.15153555  0.39272701    -0.01800
C1125       C  0.73368090  0.16249394  0.41179696     0.03200
C1126       C  0.72155326  0.17869314  0.42679293    -0.04600
C1127       C  0.69691873  0.18272474  0.42272171    -0.01700
C1128       C  0.68493679  0.17097714  0.40417333     0.03200
C1129       C  0.73505931  0.13672939  0.37642117     0.37900
C1130       C  0.68334503  0.19866936  0.43764985     0.37900
C1131       C  0.65949692  0.17415682  0.40141979     0.36300
C1132       C  0.75857541  0.15697222  0.41546192     0.36300
N1133       N  0.63921843  0.17669735  0.39935182    -0.38500
N1134       N  0.77833825  0.15217304  0.41834714    -0.38500
N1135       N  0.67234621  0.21149031  0.44925971    -0.38000
N1136       N  0.74570872  0.12501080  0.36340689    -0.38000
C1137       C  0.57100411  0.85115265  0.24153348    -0.04600
C1138       C  0.57063370  0.84892073  0.21663595    -0.01800
C1139       C  0.55174482  0.83707745  0.20527323     0.03200
C1140       C  0.53286410  0.82764449  0.21875372    -0.04600
C1141       C  0.53297482  0.83057182  0.24365212    -0.01700
C1142       C  0.55201724  0.84211361  0.25496929     0.03200
C1143       C  0.59013195  0.85813162  0.20273734     0.37900
C1144       C  0.51311189  0.82242200  0.25771198     0.37900
C1145       C  0.55169443  0.84529479  0.28047734     0.36300
C1146       C  0.55238974  0.83373540  0.17979665     0.36300
N1147       N  0.55141731  0.84785140  0.30081141    -0.38500
N1148       N  0.55295146  0.83102708  0.15948578    -0.38500
N1149       N  0.49730013  0.81602510  0.26901827    -0.38000
N1150       N  0.60568657  0.86548038  0.19165671    -0.38000
C1151       C  0.41871070  0.24831831  0.15150016    -0.04600
C1152       C  0.39721101  0.25260399  0.16357433    -0.01800
C1153       C  0.37789515  0.26314674  0.15167019     0.03200
C1154       C  0.38017975  0.27025537  0.12776748    -0.04600
C1155       C  0.40192116  0.26623476  0.11584371    -0.01700
C1156       C  0.42091543  0.25491075  0.12754805     0.03200
C1157       C  0.39471966  0.24553970  0.18813135     0.37900
C1158       C  0.40530080  0.27472092  0.09188507     0.37900
C1159       C  0.44306939  0.25069641  0.11514691     0.36300
C1160       C  0.35540568  0.26581353  0.16387836     0.36300
N1161       N  0.46074605  0.24726832  0.10530701    -0.38500
N1162       N  0.33746942  0.26785927  0.17363145    -0.38500
N1163       N  0.40810321  0.28157140  0.07281520    -0.38000
N1164       N  0.39275104  0.23996150  0.20772282    -0.38000
C1165       C  0.56286560  0.26856978  0.12219807    -0.04600
C1166       C  0.56264002  0.24394329  0.12544691    -0.01800
C1167       C  0.54407425  0.23331857  0.13820518     0.03200
C1168       C  0.52485549  0.24711426  0.14657414    -0.04600
C1169       C  0.52458471  0.27163108  0.14228353    -0.01700
C1170       C  0.54387740  0.28241080  0.13079607     0.03200
C1171       C  0.58194140  0.22958579  0.11634840     0.37900
C1172       C  0.50406332  0.28568049  0.14887024     0.37900
C1173       C  0.54399943  0.30775803  0.12754688     0.36300
C1174       C  0.54552522  0.20840343  0.14379194     0.36300
N1175       N  0.54415625  0.32799367  0.12512087    -0.38500
N1176       N  0.54679524  0.18858830  0.14841211    -0.38500
N1177       N  0.48757949  0.29679412  0.15392738    -0.38000
N1178       N  0.59725081  0.21811286  0.10896249    -0.38000
C1179       C  0.52684491  0.18124711  0.22290147    -0.04600
C1180       C  0.52232716  0.15946624  0.23394272    -0.01800
C1181       C  0.54081405  0.14723720  0.24550943     0.03200
C1182       C  0.56407673  0.15660330  0.24583121    -0.04600
C1183       C  0.56853600  0.17837545  0.23453901    -0.01700
C1184       C  0.54988702  0.19084792  0.22351448     0.03200
C1185       C  0.49840322  0.15003646  0.23407031     0.37900
C1186       C  0.59253628  0.18744022  0.23316515     0.37900
C1187       C  0.55451161  0.21335988  0.21232096     0.36300
C1188       C  0.53559299  0.12537599  0.25765139     0.36300
N1189       N  0.55813341  0.23136639  0.20349085    -0.38500
N1190       N  0.53132218  0.10792964  0.26728401    -0.38500
N1191       N  0.61169931  0.19459221  0.23187510    -0.38000
N1192       N  0.47930052  0.14260676  0.23420109    -0.38000
C1193       C  0.25534999  0.15910133  0.39445709    -0.04600
C1194       C  0.23094432  0.15409981  0.39623663    -0.01800
C1195       C  0.21651980  0.16669948  0.41230314     0.03200
C1196       C  0.22635806  0.18476024  0.42685546    -0.04600
C1197       C  0.25094345  0.19006239  0.42438707    -0.01700
C1198       C  0.26527473  0.17709212  0.40855012     0.03200
C1199       C  0.22042042  0.13629351  0.38098732     0.37900
C1200       C  0.26209203  0.20864388  0.43815421     0.37900
C1201       C  0.29061106  0.18167958  0.40754599     0.36300
C1202       C  0.19144874  0.16097183  0.41320697     0.36300
N1203       N  0.31079163  0.18532935  0.40685254    -0.38500
N1204       N  0.17153047  0.15609852  0.41379657    -0.38500
N1205       N  0.27117254  0.22350943  0.44889279    -0.38000
N1206       N  0.21205074  0.12210224  0.36884414    -0.38000
C1207       C  0.39132286  0.15703769  0.25631290    -0.04600
C1208       C  0.41156595  0.16712878  0.26689736    -0.01800
C1209       C  0.42810850  0.17932570  0.25290669     0.03200
C1210       C  0.42419233  0.18180867  0.22829637    -0.04600
C1211       C  0.40356719  0.17211880  0.21785985    -0.01700
C1212       C  0.38731723  0.15952525  0.23182554     0.03200
C1213       C  0.41554317  0.16460333  0.29216094     0.37900
C1214       C  0.39853633  0.17588873  0.19293718     0.37900
C1215       C  0.36617756  0.14955116  0.22110924     0.36300
C1216       C  0.44952860  0.18854790  0.26377344     0.36300
N1217       N  0.34930545  0.14161861  0.21257014    -0.38500
N1218       N  0.46662509  0.19585020  0.27244380    -0.38500
N1219       N  0.39451672  0.17903453  0.17309352    -0.38000
N1220       N  0.41864797  0.16261143  0.31231603    -0.38000
C1221       C  0.22292334  0.82317041  0.41910759    -0.04600
C1222       C  0.22632520  0.81425026  0.39604687    -0.01800
C1223       C  0.24053071  0.82664256  0.37978409     0.03200
C1224       C  0.25195426  0.84775931  0.38674627    -0.04600
C1225       C  0.24867111  0.85645123  0.41007556    -0.01700
C1226       C  0.23397845  0.84431893  0.42606277     0.03200
C1227       C  0.21493713  0.79240495  0.38900524     0.37900
C1228       C  0.26124898  0.87724440  0.41820649     0.37900
C1229       C  0.23101766  0.85310448  0.45005957     0.36300
C1230       C  0.24274736  0.81789962  0.35572344     0.36300
N1231       N  0.22870861  0.86013877  0.46917318    -0.38500
N1232       N  0.24445578  0.81086547  0.33654487    -0.38500
N1233       N  0.27123576  0.89381144  0.42479433    -0.38000
N1234       N  0.20587238  0.77495966  0.38347407    -0.38000
C1235       C  0.39695461  0.85051735  0.25502251    -0.04600
C1236       C  0.39978763  0.85615221  0.23087145    -0.01800
C1237       C  0.41587065  0.84332288  0.21658489     0.03200
C1238       C  0.42960551  0.82458443  0.22632609    -0.04600
C1239       C  0.42659102  0.81913477  0.25076555    -0.01700
C1240       C  0.41075376  0.83228576  0.26494953     0.03200
C1241       C  0.38576793  0.87495469  0.22042061     0.37900
C1242       C  0.43966616  0.80007069  0.26191354     0.37900
C1243       C  0.40957452  0.82770621  0.29022555     0.36300
C1244       C  0.41752018  0.84939977  0.19168545     0.36300
N1245       N  0.40879392  0.82411632  0.31037031    -0.38500
N1246       N  0.41870240  0.85444176  0.17187848    -0.38500
N1247       N  0.44980552  0.78479914  0.27098874    -0.38000
N1248       N  0.37474937  0.89001982  0.21204331    -0.38000
C1249       C  0.72864862  0.82618268  0.42070964    -0.04600
C1250       C  0.74164719  0.84187209  0.40598785    -0.01800
C1251       C  0.73046744  0.85341931  0.38682426     0.03200
C1252       C  0.70598347  0.85046072  0.38260416    -0.04600
C1253       C  0.69274076  0.83569120  0.39764726    -0.01700
C1254       C  0.70395411  0.82328879  0.41621626     0.03200
C1255       C  0.76666608  0.84634803  0.41009097     0.37900
C1256       C  0.66720189  0.83392191  0.39466360     0.37900
C1257       C  0.68952468  0.80789187  0.43073938     0.36300
C1258       C  0.74450634  0.86774793  0.37086898     0.36300
N1259       N  0.67781485  0.79552613  0.44201078    -0.38500
N1260       N  0.75581519  0.87904119  0.35814976    -0.38500
N1261       N  0.64684043  0.83260114  0.39236560    -0.38000
N1262       N  0.78654923  0.85027853  0.41335407    -0.38000
C1263       C  0.79679057  0.74933559  0.52501407    -0.04600
C1264       C  0.81896540  0.73897222  0.51989705    -0.01800
C1265       C  0.83086014  0.72553815  0.53721113     0.03200
C1266       C  0.82083371  0.72269877  0.56001845    -0.04600
C1267       C  0.79864540  0.73332300  0.56512876    -0.01700
C1268       C  0.78655727  0.74633179  0.54758273     0.03200
C1269       C  0.82916525  0.74141970  0.49643584     0.37900
C1270       C  0.78858010  0.73176477  0.58870542     0.37900
C1271       C  0.76384924  0.75720812  0.55297727     0.36300
C1272       C  0.85300006  0.71395886  0.53105580     0.36300
N1273       N  0.74572838  0.76584706  0.55725843    -0.38500
N1274       N  0.87066955  0.70479779  0.52604760    -0.38500
N1275       N  0.78052721  0.73059143  0.60750356    -0.38000
N1276       N  0.83723990  0.74336454  0.47771708    -0.38000
C1277       C  0.73213899  0.82771357  0.52682316    -0.04600
C1278       C  0.74593565  0.83381376  0.54689589    -0.01800
C1279       C  0.73542128  0.84579563  0.56613703     0.03200
C1280       C  0.71107873  0.85149860  0.56556653    -0.04600
C1281       C  0.69737153  0.84578134  0.54545152    -0.01700
C1282       C  0.70791586  0.83417668  0.52603014     0.03200
C1283       C  0.77074245  0.82702081  0.54824329     0.37900
C1284       C  0.67243700  0.85217359  0.54459924     0.37900
C1285       C  0.69399646  0.82976539  0.50486713     0.36300
C1286       C  0.74946100  0.85160585  0.58689426     0.36300
N1287       N  0.68285444  0.82648469  0.48796319    -0.38500
N1288       N  0.76060529  0.85624349  0.60348323    -0.38500
N1289       N  0.65255247  0.85726365  0.54393537    -0.38000
N1290       N  0.79052998  0.82162878  0.54934298    -0.38000
C1291       C  0.79467103  0.74663606  0.42275097    -0.04600
C1292       C  0.80384350  0.75674261  0.40181603    -0.01800
C1293       C  0.81511785  0.74246076  0.38474060     0.03200
C1294       C  0.81739736  0.71802537  0.38848012    -0.04600
C1295       C  0.80832705  0.70784589  0.40931483    -0.01700
C1296       C  0.79696504  0.72207485  0.42640981     0.03200
C1297       C  0.80110856  0.78173017  0.39733611     0.37900
C1298       C  0.81140432  0.68281464  0.41349927     0.37900
C1299       C  0.78849914  0.71149847  0.44817231     0.36300
C1300       C  0.82386322  0.75282750  0.36297583     0.36300
N1301       N  0.78177367  0.70306498  0.46553645    -0.38500
N1302       N  0.83076831  0.76105785  0.34558443    -0.38500
N1303       N  0.81396795  0.66286388  0.41683392    -0.38000
N1304       N  0.79908823  0.80162769  0.39345844    -0.38000
C1305       C  0.42486787  0.75790427  0.79213966    -0.04600
C1306       C  0.40216798  0.75486497  0.78211663    -0.01800
C1307       C  0.38469281  0.74212600  0.79443000     0.03200
C1308       C  0.39020578  0.73137183  0.81632974    -0.04600
C1309       C  0.41305259  0.73450409  0.82632858    -0.01700
C1310       C  0.43010815  0.74820868  0.81450559     0.03200
C1311       C  0.39668950  0.76517351  0.75926092     0.37900
C1312       C  0.41958953  0.72276379  0.84819289     0.37900
C1313       C  0.45332938  0.75174089  0.82509300     0.36300
C1314       C  0.36081407  0.74084020  0.78489577     0.36300
N1315       N  0.47175378  0.75458807  0.83369582    -0.38500
N1316       N  0.34173094  0.73995929  0.77735926    -0.38500
N1317       N  0.42493634  0.71340383  0.86558825    -0.38000
N1318       N  0.39233763  0.77332137  0.74099988    -0.38000
C1319       C  0.53278693  0.82388590  0.72133755    -0.04600
C1320       C  0.55500052  0.81249130  0.71980594    -0.01800
C1321       C  0.57434710  0.82396090  0.70907198     0.03200
C1322       C  0.57147148  0.84681880  0.69948042    -0.04600
C1323       C  0.54886939  0.85776737  0.70027356    -0.01700
C1324       C  0.52970491  0.84644157  0.71143320     0.03200
C1325       C  0.55816446  0.78925334  0.73004354     0.37900
C1326       C  0.54491658  0.88026426  0.68876933     0.37900
C1327       C  0.50656854  0.85773199  0.71217402     0.36300
C1328       C  0.59735720  0.81244273  0.70873194     0.36300
N1329       N  0.48810486  0.86668030  0.71277115    -0.38500
N1330       N  0.61565456  0.80314455  0.70846202    -0.38500
N1331       N  0.54166404  0.89816847  0.67955070    -0.38000
N1332       N  0.56065046  0.77072943  0.73820320    -0.38000
C1333       C  0.52489149  0.75465107  0.79739883    -0.04600
C1334       C  0.51961687  0.73093222  0.80281414    -0.01800
C1335       C  0.53538488  0.71761006  0.81672987     0.03200
C1336       C  0.55646763  0.72790312  0.82531270    -0.04600
C1337       C  0.56142010  0.75178011  0.82057474    -0.01700
C1338       C  0.54570661  0.76512731  0.80655609     0.03200
C1339       C  0.49766459  0.72032127  0.79459930     0.37900
C1340       C  0.58322020  0.76232371  0.82922492     0.37900
C1341       C  0.55163937  0.78925253  0.80058354     0.36300
C1342       C  0.52967650  0.69339584  0.82260517     0.36300
N1343       N  0.55646908  0.80845362  0.79577187    -0.38500
N1344       N  0.52508267  0.67411106  0.82731083    -0.38500
N1345       N  0.60062483  0.77065747  0.83615482    -0.38000
N1346       N  0.48012690  0.71188437  0.78814495    -0.38000
C1347       C  0.42811737  0.82699928  0.71648606    -0.04600
C1348       C  0.43120718  0.83068428  0.69194540    -0.01800
C1349       C  0.41311302  0.84155632  0.67858146     0.03200
C1350       C  0.39210147  0.84923991  0.68976400    -0.04600
C1351       C  0.38920133  0.84604967  0.71434001    -0.01700
C1352       C  0.40708576  0.83484905  0.72766815     0.03200
C1353       C  0.45344952  0.82435006  0.68065012     0.37900
C1354       C  0.36755882  0.85387596  0.72584682     0.37900
C1355       C  0.40347580  0.83082178  0.75278032     0.36300
C1356       C  0.41635711  0.84542132  0.65341503     0.36300
N1357       N  0.40063232  0.82757880  0.77279722    -0.38500
N1358       N  0.41892208  0.84853833  0.63334268    -0.38500
N1359       N  0.35031045  0.86011814  0.73504408    -0.38000
N1360       N  0.47127898  0.81949558  0.67171816    -0.38000
C1361       C  0.71397524  0.55209180  0.79408252    -0.04600
C1362       C  0.72458318  0.57280320  0.80306876    -0.01800
C1363       C  0.71086958  0.58927048  0.81572206     0.03200
C1364       C  0.68657496  0.58499315  0.81969773    -0.04600
C1365       C  0.67589179  0.56438950  0.81072660    -0.01700
C1366       C  0.68953630  0.54797074  0.79786091     0.03200
C1367       C  0.74952205  0.57751161  0.79900474     0.37900
C1368       C  0.65111180  0.55958738  0.81564538     0.37900
C1369       C  0.67864284  0.52630524  0.78956973     0.36300
C1370       C  0.72168068  0.61088750  0.82425937     0.36300
N1371       N  0.67001568  0.50899768  0.78298780    -0.38500
N1372       N  0.73027070  0.62813587  0.83103983    -0.38500
N1373       N  0.63139077  0.55567215  0.81968347    -0.38000
N1374       N  0.76940211  0.58148220  0.79597469    -0.38000
C1375       C  0.79261617  0.44878322  0.72887822    -0.04600
C1376       C  0.80052706  0.42941648  0.74252922    -0.01800
C1377       C  0.81330163  0.41094129  0.73172230     0.03200
C1378       C  0.81781988  0.41147854  0.70718654    -0.04600
C1379       C  0.81032528  0.43095210  0.69361014    -0.01700
C1380       C  0.79788885  0.44962079  0.70443681     0.03200
C1381       C  0.79468445  0.42790753  0.76750471     0.37900
C1382       C  0.81601953  0.43211940  0.66858109     0.37900
C1383       C  0.79128782  0.47002264  0.69047695     0.36300
C1384       C  0.82114736  0.39098940  0.74573105     0.36300
N1385       N  0.78619305  0.48624132  0.67919090    -0.38500
N1386       N  0.82746147  0.37509339  0.75689141    -0.38500
N1387       N  0.82059732  0.43311486  0.64864145    -0.38000
N1388       N  0.78999294  0.42668462  0.78740564    -0.38000
C1389       C  0.71540686  0.45121078  0.79656557    -0.04600
C1390       C  0.71147877  0.42889786  0.78624332    -0.01800
C1391       C  0.69891855  0.41145141  0.79876421     0.03200
C1392       C  0.68989597  0.41626688  0.82168612    -0.04600
C1393       C  0.69348996  0.43885609  0.83177476    -0.01700
C1394       C  0.70620514  0.45622349  0.81925607     0.03200
C1395       C  0.72109016  0.42360576  0.76298024     0.37900
C1396       C  0.68348934  0.44461297  0.85473214     0.37900
C1397       C  0.70908721  0.47959658  0.82935670     0.36300
C1398       C  0.69626168  0.38822945  0.78830819     0.36300
N1399       N  0.71133106  0.49828013  0.83729803    -0.38500
N1400       N  0.69418514  0.36973488  0.77988902    -0.38500
N1401       N  0.67555927  0.44930712  0.87304329    -0.38000
N1402       N  0.72876902  0.41944524  0.74443533    -0.38000
C1403       C  0.79185704  0.55222774  0.72402980    -0.04600
C1404       C  0.78796320  0.55558026  0.69933322    -0.01800
C1405       C  0.80141822  0.57214148  0.68656519     0.03200
C1406       C  0.81816721  0.58649035  0.69824164    -0.04600
C1407       C  0.82176692  0.58381967  0.72279560    -0.01700
C1408       C  0.80908062  0.56658804  0.73557248     0.03200
C1409       C  0.77024799  0.54210190  0.68647529     0.37900
C1410       C  0.83796728  0.59945277  0.73519485     0.37900
C1411       C  0.81382816  0.56423561  0.76072008     0.36300
C1412       C  0.79854507  0.57374641  0.66103970     0.36300
N1413       N  0.81797261  0.56242975  0.78071298    -0.38500
N1414       N  0.79629537  0.57499261  0.64070926    -0.38500
N1415       N  0.85075686  0.61196801  0.74515216    -0.38000
N1416       N  0.75601356  0.53174467  0.67597701    -0.38000
loop_ 
_geom_bond_atom_site_label_1 
_geom_bond_atom_site_label_2 
_geom_bond_distance 
_geom_bond_site_symmetry_2 
_ccdc_geom_bond_type 
O1           Cu9   2.004       .  S
O1           C11   1.278       .  A
O2           Cu9   1.998       .  S
O2           C12   1.277       .  A
O3           Cu9   2.003       .  S
O3           C13   1.277       .  A
O4           Cu9   2.004       .  S
O4           C14   1.277       .  A
O5          Cu10   2.012       .  S
O5           C14   1.278       .  A
O6          Cu10   2.013       .  S
O6           C13   1.278       .  A
O7          Cu10   1.993       .  S
O7           C12   1.276       .  A
O8          Cu10   1.995       .  S
O8           C11   1.276       .  A
Cu9         Cu10   2.370       .  S
C11        C1375   1.481       .  S
C12        C1361   1.477       .  S
C13        C1403   1.507       .  S
C14        C1389   1.482       .  S
O15         Cu23   1.999       .  S
O15          C25   1.276       .  A
O16         Cu23   2.001       .  S
O16          C26   1.277       .  A
O17         Cu23   2.003       .  S
O17          C27   1.277       .  A
O18         Cu23   2.003       .  S
O18          C28   1.277       .  A
O19         Cu24   2.001       .  S
O19          C28   1.276       .  A
O20         Cu24   2.001       .  S
O20          C27   1.277       .  A
O21         Cu24   2.002       .  S
O21          C26   1.277       .  A
O22         Cu24   1.998       .  S
O22          C25   1.277       .  A
Cu23        Cu24   2.378       .  S
C25        C1333   1.478       .  S
C26        C1347   1.481       .  S
C27        C1305   1.474       .  S
C28        C1319   1.476       .  S
O29         Cu37   2.009       .  S
O29          C39   1.278       .  A
O30         Cu37   2.006       .  S
O30          C40   1.277       .  A
O31         Cu37   2.008       .  S
O31          C41   1.278       .  A
O32         Cu37   2.007       .  S
O32          C42   1.278       .  A
O33         Cu38   2.007       .  S
O33          C42   1.278       .  A
O34         Cu38   2.005       .  S
O34          C41   1.277       .  A
O35         Cu38   2.006       .  S
O35          C40   1.277       .  A
O36         Cu38   2.010       .  S
O36          C39   1.278       .  A
Cu37        Cu38   2.369       .  S
C39        C1249   1.509       .  S
C40        C1263   1.479       .  S
C41        C1277   1.485       .  S
C42        C1291   1.485       .  S
N43          N44   1.321       .  A
N43          C47   1.345       .  A
N43         Cu51   2.074       .  S
N44          C45   1.342       .  A
N44         Cu50   2.062       .  S
C45          C46   1.383       .  A
C45          H48   1.082       .  S
C46        C1224   1.489       .  S
C46          C47   1.386       .  A
C47          H49   1.082       .  S
Cu50         N53   2.062       .  S
Cu51         N61   2.074       .  S
Cu52         N54   2.068       .  S
Cu52         N60   2.069       .  S
N53          N54   1.321       .  A
N53          C57   1.344       .  A
N54          C55   1.343       .  A
C55          C56   1.382       .  A
C55          H58   1.082       .  S
C56          C80   1.466   1_565  S
C56          C57   1.381       .  A
C57          H59   1.082       .  S
N60          N61   1.322       .  A
N60          C64   1.345       .  A
N61          C62   1.344       .  A
C62          C63   1.385       .  A
C62          H65   1.082       .  S
C63        C1235   1.490       .  S
C63          C64   1.384       .  A
C64          H66   1.082       .  S
N67          N68   1.322       .  A
N67          C71   1.343       .  A
N67         Cu75   2.061       .  S
N68          C69   1.344       .  A
N68         Cu74   2.070       .  S
C69          C70   1.384       .  A
C69          H72   1.082       .  S
C70        C1193   1.484       .  S
C70          C71   1.382       .  A
C71          H73   1.082       .  S
Cu74         N77   2.071       .  S
Cu75         N85   2.060       .  S
Cu76         N78   2.063       .  S
Cu76         N84   2.063       .  S
N77          N78   1.322       .  A
N77          C81   1.345       .  A
N78          C79   1.342       .  A
C79          C80   1.380       .  A
C79          H82   1.082       .  S
C80          C81   1.383       .  A
C81          H83   1.082       .  S
N84          N85   1.322       .  A
N84          C88   1.344       .  A
N85          C86   1.342       .  A
C86          C87   1.378       .  A
C86          H89   1.082       .  S
C87        C1207   1.472       .  S
C87          C88   1.380       .  A
C88          H90   1.082       .  S
O91         Cu99   1.999       .  S
O91         C101   1.277       .  A
O92         Cu99   1.994       .  S
O92         C102   1.276       .  A
O93         Cu99   2.008       .  S
O93         C103   1.277       .  A
O94         Cu99   2.005       .  S
O94         C104   1.277       .  A
O95        Cu100   2.009       .  S
O95         C104   1.277       .  A
O96        Cu100   2.011       .  S
O96         C103   1.278       .  A
O97        Cu100   2.000       .  S
O97         C102   1.277       .  A
O98        Cu100   2.003       .  S
O98         C101   1.278       .  A
Cu99       Cu100   2.376       .  S
C101       C1168   1.484       .  S
C102       C1210   1.479       .  S
C103       C1151   1.482       .  S
C104       C1179   1.479       .  S
N105        N106   1.322       .  A
N105        C109   1.345       .  A
N105       Cu113   2.077       .  S
N106        C107   1.346       .  A
N106       Cu112   2.076       .  S
C107        C108   1.385       .  A
C107        H110   1.082       .  S
C108       C1252   1.491       .  S
C108        C109   1.385       .  A
C109        H111   1.082       .  S
Cu112       N115   2.076       .  S
Cu113       N123   2.078       .  S
Cu114       N116   2.073       .  S
Cu114       N122   2.073       .  S
N115        N116   1.323       .  A
N115        C119   1.345       .  A
N116        C117   1.345       .  A
C117        C118   1.382       .  A
C117        H120   1.082       .  S
C118        C142   1.471   1_565  S
C118        C119   1.384       .  A
C119        H121   1.082       .  S
N122        N123   1.322       .  A
N122        C126   1.346       .  A
N123        C124   1.345       .  A
C124        C125   1.384       .  A
C124        H127   1.082       .  S
C125       C1137   1.485       .  S
C125        C126   1.382       .  A
C126        H128   1.082       .  S
N129        N130   1.321       .  A
N129        C133   1.345       .  A
N129       Cu137   2.075       .  S
N130        C131   1.343       .  A
N130       Cu136   2.066       .  S
C131        C132   1.383       .  A
C131        H134   1.082       .  S
C132       C1123   1.490       .  S
C132        C133   1.386       .  A
C133        H135   1.082       .  S
Cu136       N139   2.067       .  S
Cu137       N147   2.075       .  S
Cu138       N140   2.079       .  S
Cu138       N146   2.079       .  S
N139        N140   1.322       .  A
N139        C143   1.344       .  A
N140        C141   1.346       .  A
C141        C142   1.385       .  A
C141        H144   1.082       .  S
C142        C143   1.382       .  A
C143        H145   1.082       .  S
N146        N147   1.323       .  A
N146        C150   1.346       .  A
N147        C148   1.344       .  A
C148        C149   1.384       .  A
C148        H151   1.082       .  S
C149       C1182   1.490       .  S
C149        C150   1.386       .  A
C150        H152   1.082       .  S
O153       Cu161   2.016       .  S
O153        C163   1.279       .  A
O154       Cu161   2.017       .  S
O154        C164   1.279       .  A
O155       Cu161   1.996       .  S
O155        C165   1.275       .  A
O156       Cu161   1.998       .  S
O156        C166   1.276       .  A
O157       Cu162   2.016       .  S
O157        C166   1.279       .  A
O158       Cu162   2.007       .  S
O158        C165   1.278       .  A
O159       Cu162   2.007       .  S
O159        C164   1.277       .  A
O160       Cu162   2.010       .  S
O160        C163   1.278       .  A
Cu161      Cu162   2.368       .  S
C163       C1081   1.494       .  S
C164       C1112   1.488       .  S
C165       C1095   1.474       .  S
C166       C1126   1.506       .  S
N167        N168   1.321       .  A
N167        C171   1.344       .  A
N167       Cu175   2.064       .  S
N168        C169   1.343       .  A
N168       Cu174   2.070       .  S
C169        C170   1.385       .  A
C169        H172   1.082       .  S
C170       C1322   1.488       .  S
C170        C171   1.384       .  A
C171        H173   1.082       .  S
Cu174       N177   2.070       .  S
Cu175       N185   2.064       .  S
Cu176       N178   2.079       .  S
Cu176       N184   2.078       .  S
N177        N178   1.323       .  A
N177        C181   1.344       .  A
N178        C179   1.346       .  A
C179        C180   1.384       .  A
C179        H182   1.082       .  S
C180        C204   1.472   1_565  S
C180        C181   1.382       .  A
C181        H183   1.082       .  S
N184        N185   1.323       .  A
N184        C188   1.346       .  A
N185        C186   1.343       .  A
C186        C187   1.379       .  A
C186        H189   1.082       .  S
C187       C1280   1.479       .  S
C187        C188   1.382       .  A
C188        H190   1.082       .  S
N191        N192   1.322       .  A
N191        C195   1.345       .  A
N191       Cu199   2.073       .  S
N192        C193   1.345       .  A
N192       Cu198   2.071       .  S
C193        C194   1.382       .  A
C193        H196   1.082       .  S
C194       C1109   1.483       .  S
C194        C195   1.383       .  A
C195        H197   1.082       .  S
Cu198       N201   2.072       .  S
Cu199       N209   2.073       .  S
Cu200       N202   2.080       .  S
Cu200       N208   2.080       .  S
N201        N202   1.323       .  A
N201        C205   1.345       .  A
N202        C203   1.346       .  A
C203        C204   1.384       .  A
C203        H206   1.082       .  S
C204        C205   1.382       .  A
C205        H207   1.082       .  S
N208        N209   1.323       .  A
N208        C212   1.347       .  A
N209        C210   1.344       .  A
C210        C211   1.382       .  A
C210        H213   1.082       .  S
C211       C1070   1.485       .  S
C211        C212   1.384       .  A
C212        H214   1.082       .  S
N215        N216   1.323       .  A
N215        C219   1.345       .  A
N215       Cu223   2.073       .  S
N216        C217   1.344       .  A
N216       Cu222   2.070       .  S
C217        C218   1.380       .  A
C217        H220   1.082       .  S
C218       C1350   1.478       .  S
C218        C219   1.381       .  A
C219        H221   1.082       .  S
Cu222       N225   2.070       .  S
Cu223       N233   2.073       .  S
Cu224       N226   2.067       .  S
Cu224       N232   2.067       .  S
N225        N226   1.321       .  A
N225        C229   1.344       .  A
N226        C227   1.345       .  A
C227        C228   1.383       .  A
C227        H230   1.082       .  S
C228        C252   1.470   1_565  S
C228        C229   1.383       .  A
C229        H231   1.082       .  S
N232        N233   1.323       .  A
N232        C236   1.343       .  A
N233        C234   1.345       .  A
C234        C235   1.383       .  A
C234        H237   1.082       .  S
C235       C1053   1.482       .  S
C235        C236   1.381       .  A
C236        H238   1.082       .  S
N239        N240   1.321       .  A
N239        C243   1.344       .  A
N239       Cu247   2.067       .  S
N240        C241   1.344       .  A
N240       Cu246   2.069       .  S
C241        C242   1.384       .  A
C241        H244   1.082       .  S
C242       C1039   1.488       .  S
C242        C243   1.384       .  A
C243        H245   1.082       .  S
Cu246       N249   2.069       .  S
Cu247       N257   2.067       .  S
Cu248       N250   2.075       .  S
Cu248       N256   2.075       .  S
N249        N250   1.322       .  A
N249        C253   1.343       .  A
N250        C251   1.346       .  A
C251        C252   1.384       .  A
C251        H254   1.082       .  S
C252        C253   1.381       .  A
C253        H255   1.082       .  S
N256        N257   1.323       .  A
N256        C260   1.345       .  A
N257        C258   1.344       .  A
C258        C259   1.379       .  A
C258        H261   1.082       .  S
C259       C1025   1.476       .  S
C259        C260   1.381       .  A
C260        H262   1.082       .  S
O263       Cu271   2.004       .  S
O263        C273   1.278       .  A
O264       Cu271   2.006       .  S
O264        C274   1.277       .  A
O265       Cu271   2.014       .  S
O265        C275   1.278       .  A
O266       Cu271   2.013       .  S
O266        C276   1.278       .  A
O267       Cu272   2.008       .  S
O267        C276   1.277       .  A
O268       Cu272   2.007       .  S
O268        C275   1.277       .  A
O269       Cu272   2.010       .  S
O269        C274   1.278       .  A
O270       Cu272   2.013       .  S
O270        C273   1.278       .  A
Cu271      Cu272   2.367       .  S
C273       C1067   1.489       .  S
C274       C1011   1.490       .  S
C275       C1042   1.510       .  S
C276        C997   1.484       .  S
O277       Cu285   2.000       .  S
O277        C287   1.277       .  A
O278       Cu285   2.007       .  S
O278        C288   1.278       .  A
O279       Cu285   1.998       .  S
O279        C289   1.276       .  A
O280       Cu285   1.997       .  S
O280        C290   1.276       .  A
O281       Cu286   2.012       .  S
O281        C290   1.278       .  A
O282       Cu286   2.008       .  S
O282        C289   1.278       .  A
O283       Cu286   2.008       .  S
O283        C288   1.277       .  A
O284       Cu286   2.008       .  S
O284        C287   1.278       .  A
Cu285      Cu286   2.368       .  S
C287       C1196   1.506       .  S
C288        C969   1.481       .  S
C289       C1028   1.482       .  S
C290        C983   1.490       .  S
N291        N292   1.321       .  A
N291        C295   1.345       .  A
N291       Cu299   2.077       .  S
N292        C293   1.346       .  A
N292       Cu298   2.075       .  S
C293        C294   1.386       .  A
C293        H296   1.082       .  S
C294       C1000   1.493       .  S
C294        C295   1.386       .  A
C295        H297   1.082       .  S
Cu298       N301   2.075       .  S
Cu299       N309   2.077       .  S
Cu300       N302   2.080       .  S
Cu300       N308   2.080       .  S
N301        N302   1.323       .  A
N301        C305   1.344       .  A
N302        C303   1.347       .  A
C303        C304   1.384       .  A
C303        H306   1.082       .  S
C304        C328   1.472       .  S
C304        C305   1.382       .  A
C305        H307   1.082       .  S
N308        N309   1.322       .  A
N308        C312   1.346       .  A
N309        C310   1.345       .  A
C310        C311   1.386       .  A
C310        H313   1.082       .  S
C311       C1392   1.493       .  S
C311        C312   1.387       .  A
C312        H314   1.082       .  S
N315        N316   1.321       .  A
N315        C319   1.343       .  A
N315       Cu323   2.060       .  S
N316        C317   1.345       .  A
N316       Cu322   2.073       .  S
C317        C318   1.383       .  A
C317        H320   1.082       .  S
C318       C1165   1.480       .  S
C318        C319   1.380       .  A
C319        H321   1.082       .  S
Cu322       N325   2.074       .  S
Cu323       N333   2.060       .  S
Cu324       N326   2.075       .  S
Cu324       N332   2.075       .  S
N325        N326   1.323       .  A
N325        C329   1.344       .  A
N326        C327   1.346       .  A
C327        C328   1.384   1_554  A
C327        H330   1.082   1_554  S
C328        C329   1.382   1_556  A
C329        H331   1.082   1_554  S
N332        N333   1.322       .  A
N332        C336   1.345       .  A
N333        C334   1.342       .  A
C334        C335   1.380       .  A
C334        H337   1.082       .  S
C335        C955   1.481       .  S
C335        C336   1.383       .  A
C336        H338   1.082       .  S
O339       Cu347   2.002       .  S
O339        C349   1.277       .  A
O340       Cu347   1.998       .  S
O340        C350   1.277       .  A
O341       Cu347   2.006       .  S
O341        C351   1.278       .  A
O342       Cu347   2.006       .  S
O342        C352   1.277       .  A
O343       Cu348   2.004       .  S
O343        C352   1.277       .  A
O344       Cu348   2.009       .  S
O344        C351   1.278       .  A
O345       Cu348   2.005       .  S
O345        C350   1.278       .  A
O346       Cu348   2.003       .  S
O346        C349   1.277       .  A
Cu347      Cu348   2.369       .  S
C349        C958   1.486       .  S
C350        C916   1.487       .  S
C351        C944   1.507       .  S
C352        C927   1.479       .  S
N353        N354   1.321       .  A
N353        C357   1.343       .  A
N353       Cu361   2.058       .  S
N354        C355   1.341       .  A
N354       Cu360   2.058       .  S
C355        C356   1.379       .  A
C355        H358   1.082       .  S
C356       C1364   1.473       .  S
C356        C357   1.379       .  A
C357        H359   1.082       .  S
Cu360       N363   2.059       .  S
Cu361       N371   2.058       .  S
Cu362       N364   2.062       .  S
Cu362       N370   2.062       .  S
N363        N364   1.321       .  A
N363        C367   1.342       .  A
N364        C365   1.343       .  A
C365        C366   1.381       .  A
C365        H368   1.082       .  S
C366        C390   1.464       .  S
C366        C367   1.381       .  A
C367        H369   1.082       .  S
N370        N371   1.322       .  A
N370        C374   1.344       .  A
N371        C372   1.341       .  A
C372        C373   1.379       .  A
C372        H375   1.082       .  S
C373       C1336   1.475       .  S
C373        C374   1.381       .  A
C374        H376   1.082       .  S
N377        N378   1.322       .  A
N377        C381   1.345       .  A
N377       Cu385   2.082       .  S
N378        C379   1.344       .  A
N378       Cu384   2.062       .  S
C379        C380   1.381       .  A
C379        H382   1.082       .  S
C380        C902   1.486       .  S
C380        C381   1.385       .  A
C381        H383   1.082       .  S
Cu384       N387   2.061       .  S
Cu385       N395   2.082       .  S
Cu386       N388   2.059       .  S
Cu386       N394   2.060       .  S
N387        N388   1.321       .  A
N387        C391   1.343       .  A
N388        C389   1.342   1_554  A
C389        C390   1.381       .  A
C389        H392   1.082       .  S
C390        C391   1.381   1_556  A
C391        H393   1.082   1_554  S
N394        N395   1.321       .  A
N394        C398   1.343       .  A
N395        C396   1.346       .  A
C396        C397   1.388       .  A
C396        H399   1.082       .  S
C397        C941   1.492       .  S
C397        C398   1.383       .  A
C398        H400   1.082       .  S
N401        N402   1.321       .  A
N401        C405   1.344       .  A
N401       Cu409   2.077       .  S
N402        C403   1.342       .  A
N402       Cu408   2.057       .  S
C403        C404   1.382       .  A
C403        H406   1.082       .  S
C404       C1308   1.486       .  S
C404        C405   1.386       .  A
C405        H407   1.082       .  S
Cu408       N411   2.057       .  S
Cu409       N419   2.077       .  S
Cu410       N412   2.076       .  S
Cu410       N418   2.077       .  S
N411        N412   1.321       .  A
N411        C415   1.343       .  A
N412        C413   1.344       .  A
C413        C414   1.384       .  A
C413        H416   1.082       .  S
C414        C438   1.467       .  S
C414        C415   1.380       .  A
C415        H417   1.082       .  S
N418        N419   1.322       .  A
N418        C422   1.344       .  A
N419        C420   1.347       .  A
C420        C421   1.387       .  A
C420        H423   1.082       .  S
C421        C885   1.494       .  S
C421        C422   1.386       .  A
C422        H424   1.082       .  S
N425        N426   1.323       .  A
N425        C429   1.345       .  A
N425       Cu433   2.075       .  S
N426        C427   1.345       .  A
N426       Cu432   2.077       .  S
C427        C428   1.383       .  A
C427        H430   1.082       .  S
C428        C871   1.485       .  S
C428        C429   1.382       .  A
C429        H431   1.082       .  S
Cu432       N435   2.077       .  S
Cu433       N443   2.075       .  S
Cu434       N436   2.057       .  S
Cu434       N442   2.058       .  S
N435        N436   1.322       .  A
N435        C439   1.346   1_554  A
N436        C437   1.342   1_554  A
C437        C438   1.379       .  A
C437        H440   1.082       .  S
C438        C439   1.384       .  A
C439        H441   1.082       .  S
N442        N443   1.321       .  A
N442        C446   1.343       .  A
N443        C444   1.344       .  A
C444        C445   1.386       .  A
C444        H447   1.082       .  S
C445        C860   1.488       .  S
C445        C446   1.383       .  A
C446        H448   1.082       .  S
O449       Cu457   2.001       .  S
O449        C459   1.276       .  A
O450       Cu457   2.002       .  S
O450        C460   1.277       .  A
O451       Cu457   2.003       .  S
O451        C461   1.277       .  A
O452       Cu457   2.004       .  S
O452        C462   1.277       .  A
O453       Cu458   2.016       .  S
O453        C462   1.279       .  A
O454       Cu458   2.018       .  S
O454        C461   1.279       .  A
O455       Cu458   2.011       .  S
O455        C460   1.278       .  A
O456       Cu458   2.008       .  S
O456        C459   1.277       .  A
Cu457      Cu458   2.367       .  S
C459        C899   1.477       .  S
C460       C1238   1.509       .  S
C461        C874   1.491       .  S
C462       C1140   1.490       .  S
N463        N464   1.321       .  A
N463        C467   1.343       .  A
N463       Cu471   2.067       .  S
N464        C465   1.345       .  A
N464       Cu470   2.070       .  S
C465        C466   1.384       .  A
C465        H468   1.082       .  S
C466       C1014   1.486       .  S
C466        C467   1.383       .  A
C467        H469   1.082       .  S
Cu470       N473   2.070       .  S
Cu471       N481   2.067       .  S
Cu472       N474   2.076       .  S
Cu472       N480   2.076       .  S
N473        N474   1.323       .  A
N473        C477   1.344       .  A
N474        C475   1.345       .  A
C475        C476   1.383       .  A
C475        H478   1.082       .  S
C476        C500   1.470       .  S
C476        C477   1.382       .  A
C477        H479   1.082       .  S
N480        N481   1.322       .  A
N480        C484   1.346       .  A
N481        C482   1.343       .  A
C482        C483   1.382       .  A
C482        H485   1.082       .  S
C483        C843   1.486       .  S
C483        C484   1.385       .  A
C484        H486   1.082       .  S
N487        N488   1.321       .  A
N487        C491   1.344       .  A
N487       Cu495   2.072       .  S
N488        C489   1.345       .  A
N488       Cu494   2.076       .  S
C489        C490   1.387       .  A
C489        H492   1.082       .  S
C490       C1154   1.492       .  S
C490        C491   1.385       .  A
C491        H493   1.082       .  S
Cu494       N497   2.076       .  S
Cu495       N505   2.071       .  S
Cu496       N498   2.067       .  S
Cu496       N504   2.066       .  S
N497        N498   1.322       .  A
N497        C501   1.345       .  A
N498        C499   1.344       .  A
C499        C500   1.382   1_554  A
C499        H502   1.082   1_554  S
C500        C501   1.384   1_556  A
C501        H503   1.082   1_554  S
N504        N505   1.322       .  A
N504        C508   1.344       .  A
N505        C506   1.344       .  A
C506        C507   1.382       .  A
C506        H509   1.082       .  S
C507        C829   1.481       .  S
C507        C508   1.382       .  A
C508        H510   1.082       .  S
N511        N512   1.321       .  A
N511        C515   1.343       .  A
N511       Cu519   2.061       .  S
N512        C513   1.344       .  A
N512       Cu518   2.071       .  S
C513        C514   1.384       .  A
C513        H516   1.082       .  S
C514       C1098   1.483       .  S
C514        C515   1.382       .  A
C515        H517   1.082       .  S
Cu518       N521   2.072       .  S
Cu519       N529   2.061       .  S
Cu520       N522   2.069       .  S
Cu520       N528   2.069       .  S
N521        N522   1.322       .  A
N521        C525   1.345       .  A
N522        C523   1.344       .  A
C523        C524   1.382       .  A
C523        H526   1.082       .  S
C524        C548   1.470       .  S
C524        C525   1.383       .  A
C525        H527   1.082       .  S
N528        N529   1.322       .  A
N528        C532   1.345       .  A
N529        C530   1.342       .  A
C530        C531   1.379       .  A
C530        H533   1.082       .  S
C531       C1378   1.477       .  S
C531        C532   1.381       .  A
C532        H534   1.082       .  S
N535        N536   1.321       .  A
N535        C539   1.345       .  A
N535       Cu543   2.078       .  S
N536        C537   1.346       .  A
N536       Cu542   2.073       .  S
C537        C538   1.386       .  A
C537        H540   1.082       .  S
C538        C972   1.492       .  S
C538        C539   1.386       .  A
C539        H541   1.082       .  S
Cu542       N545   2.073       .  S
Cu543       N553   2.078       .  S
Cu544       N546   2.077       .  S
Cu544       N552   2.077       .  S
N545        N546   1.323       .  A
N545        C549   1.345   1_455  A
N546        C547   1.345   1_455  A
C547        C548   1.383       .  A
C547        H550   1.082       .  S
C548        C549   1.382       .  A
C549        H551   1.082       .  S
N552        N553   1.322       .  A
N552        C556   1.346       .  A
N553        C554   1.344       .  A
C554        C555   1.386       .  A
C554        H557   1.082       .  S
C555        C815   1.495       .  S
C555        C556   1.387       .  A
C556        H558   1.082       .  S
O559       Cu567   2.010       .  S
O559        C569   1.278       .  A
O560       Cu567   2.011       .  S
O560        C570   1.278       .  A
O561       Cu567   2.012       .  S
O561        C571   1.278       .  A
O562       Cu567   2.008       .  S
O562        C572   1.278       .  A
O563       Cu568   2.016       .  S
O563        C572   1.279       .  A
O564       Cu568   2.016       .  S
O564        C571   1.279       .  A
O565       Cu568   2.007       .  S
O565        C570   1.277       .  A
O566       Cu568   2.002       .  S
O566        C569   1.277       .  A
Cu567      Cu568   2.368       .  S
C569        C846   1.484       .  S
C570        C801   1.482       .  S
C571        C888   1.513       .  S
C572        C818   1.485       .  S
N573        N574   1.322       .  A
N573        C577   1.342       .  A
N573       Cu581   2.069       .  S
N574        C575   1.346       .  A
N574       Cu580   2.070       .  S
C575        C576   1.384       .  A
C575        H578   1.082       .  S
C576       C1406   1.487       .  S
C576        C577   1.383       .  A
C577        H579   1.082       .  S
Cu580       N583   2.070       .  S
Cu581       N591   2.069       .  S
Cu582       N584   2.065       .  S
Cu582       N590   2.065       .  S
N583        N584   1.322       .  A
N583        C587   1.344       .  A
N584        C585   1.343       .  A
C585        C586   1.381       .  A
C585        H588   1.082       .  S
C586        C610   1.466       .  S
C586        C587   1.382       .  A
C587        H589   1.082       .  S
N590        N591   1.320       .  A
N590        C594   1.343       .  A
N591        C592   1.344       .  A
C592        C593   1.386       .  A
C592        H595   1.082       .  S
C593       C1266   1.491       .  S
C593        C594   1.385       .  A
C594        H596   1.082       .  S
N597        N598   1.322       .  A
N597        C601   1.346       .  A
N597       Cu605   2.087       .  S
N598        C599   1.343       .  A
N598       Cu604   2.064       .  S
C599        C600   1.382       .  A
C599        H602   1.082       .  S
C600        C787   1.492       .  S
C600        C601   1.388       .  A
C601        H603   1.082       .  S
Cu604       N607   2.064       .  S
Cu605       N615   2.087       .  S
Cu606       N608   2.059       .  S
Cu606       N614   2.059       .  S
N607        N608   1.320       .  A
N607        C611   1.343       .  A
N608        C609   1.343       .  A
C609        C610   1.381   1_455  A
C609        H612   1.082   1_455  S
C610        C611   1.382   1_655  A
C611        H613   1.082   1_455  S
N614        N615   1.323       .  A
N614        C618   1.343       .  A
N615        C616   1.347       .  A
C616        C617   1.384       .  A
C616        H619   1.082       .  S
C617        C804   1.478       .  S
C617        C618   1.377       .  A
C618        H620   1.082       .  S
O621       Cu629   2.012       .  S
O621        C631   1.278       .  A
O622       Cu629   2.019       .  S
O622        C632   1.279       .  A
O623       Cu629   2.003       .  S
O623        C633   1.277       .  A
O624       Cu629   2.002       .  S
O624        C634   1.277       .  A
O625       Cu630   2.007       .  S
O625        C634   1.278       .  A
O626       Cu630   2.003       .  S
O626        C633   1.278       .  A
O627       Cu630   1.995       .  S
O627        C632   1.276       .  A
O628       Cu630   1.992       .  S
O628        C631   1.275       .  A
Cu629      Cu630   2.368       .  S
C631       C1221   1.474       .  S
C632        C790   1.508       .  S
C633       C1056   1.489       .  S
C634        C776   1.488       .  S
N635        N636   1.322       .  A
N635        C639   1.345       .  A
N635       Cu643   2.070       .  S
N636        C637   1.343       .  A
N636       Cu642   2.064       .  S
C637        C638   1.380       .  A
C637        H640   1.082       .  S
C638       C1294   1.478       .  S
C638        C639   1.382       .  A
C639        H641   1.082       .  S
Cu642       N645   2.063       .  S
Cu643       N653   2.070       .  S
Cu644       N646   2.070       .  S
Cu644       N652   2.070       .  S
N645        N646   1.322       .  A
N645        C649   1.342       .  A
N646        C647   1.345       .  A
C647        C648   1.383       .  A
C647        H650   1.082       .  S
C648        C672   1.467       .  S
C648        C649   1.381       .  A
C649        H651   1.082       .  S
N652        N653   1.323       .  A
N652        C656   1.344       .  A
N653        C654   1.344       .  A
C654        C655   1.382       .  A
C654        H657   1.082       .  S
C655        C913   1.482       .  S
C655        C656   1.381       .  A
C656        H658   1.082       .  S
N659        N660   1.322       .  A
N659        C663   1.342       .  A
N659       Cu667   2.061       .  S
N660        C661   1.345       .  A
N660       Cu666   2.071       .  S
C661        C662   1.382       .  A
C661        H664   1.082       .  S
C662        C773   1.478       .  S
C662        C663   1.380       .  A
C663        H665   1.082       .  S
Cu666       N669   2.071       .  S
Cu667       N677   2.061       .  S
Cu668       N670   2.067       .  S
Cu668       N676   2.067       .  S
N669        N670   1.323       .  A
N669        C673   1.343   1_455  A
N670        C671   1.344   1_455  A
C671        C672   1.381       .  A
C671        H674   1.082       .  S
C672        C673   1.382       .  A
C673        H675   1.082       .  S
N676        N677   1.322       .  A
N676        C680   1.344       .  A
N677        C678   1.342       .  A
C678        C679   1.379       .  A
C678        H681   1.082       .  S
C679        C762   1.476       .  S
C679        C680   1.381       .  A
C680        H682   1.082       .  S
N683        N684   1.324       .  A
N683        C687   1.345       .  A
N683       Cu691   2.080       .  S
N684        C685   1.348       .  A
N684       Cu690   2.084       .  S
C685        C686   1.384       .  A
C685        H688   1.082       .  S
C686       C1084   1.488       .  S
C686        C687   1.383       .  A
C687        H689   1.082       .  S
Cu690       N693   2.084       .  S
Cu691       N701   2.080       .  S
Cu692       N694   2.059       .  S
Cu692       N700   2.059       .  S
N693        N694   1.322       .  A
N693        C697   1.346       .  A
N694        C695   1.343       .  A
C695        C696   1.379       .  A
C695        H698   1.082       .  S
C696        C720   1.470       .  S
C696        C697   1.386       .  A
C697        H699   1.082       .  S
N700        N701   1.320       .  A
N700        C704   1.343       .  A
N701        C702   1.345       .  A
C702        C703   1.388       .  A
C702        H705   1.082       .  S
C703        C930   1.491       .  S
C703        C704   1.384       .  A
C704        H706   1.082       .  S
N707        N708   1.322       .  A
N707        C711   1.345       .  A
N707       Cu715   2.073       .  S
N708        C709   1.342       .  A
N708       Cu714   2.059       .  S
C709        C710   1.379       .  A
C709        H712   1.082       .  S
C710        C986   1.479       .  S
C710        C711   1.383       .  A
C711        H713   1.082       .  S
Cu714       N717   2.059       .  S
Cu715       N725   2.073       .  S
Cu716       N718   2.083       .  S
Cu716       N724   2.083       .  S
N717        N718   1.322       .  A
N717        C721   1.343       .  A
N718        C719   1.346       .  A
C719        C720   1.386   1_455  A
C719        H722   1.082   1_455  S
C720        C721   1.380   1_655  A
C721        H723   1.082   1_455  S
N724        N725   1.322       .  A
N724        C728   1.346       .  A
N725        C726   1.344       .  A
C726        C727   1.385       .  A
C726        H729   1.082       .  S
C727        C745   1.493       .  S
C727        C728   1.387       .  A
C728        H730   1.082       .  S
O731       Cu739   1.999       .  S
O731        C741   1.276       .  A
O732       Cu739   1.996       .  S
O732        C742   1.276       .  A
O733       Cu739   2.006       .  S
O733        C743   1.278       .  A
O734       Cu739   2.008       .  S
O734        C744   1.278       .  A
O735       Cu740   1.995       .  S
O735        C744   1.276       .  A
O736       Cu740   1.994       .  S
O736        C743   1.276       .  A
O737       Cu740   2.015       .  S
O737        C742   1.278       .  A
O738       Cu740   2.014       .  S
O738        C741   1.278       .  A
Cu739      Cu740   2.376       .  S
C741        C748   1.478       .  S
C742        C857   1.478       .  S
C743        C759   1.483       .  S
C744        C832   1.482       .  S
C745        C746   1.418       .  A
C745        C750   1.417       .  A
C746        C747   1.411       .  A
C746        C751   1.451       .  S
C747        C748   1.410       .  A
C747        C754   1.452       .  S
C748        C749   1.410       .  A
C749        C750   1.411       .  A
C749        C752   1.452       .  S
C750        C753   1.451       .  S
C751        N758   1.157       .  T
C752        N757   1.157       .  T
C753        N755   1.157       .  T
C754        N756   1.157       .  T
C759        C760   1.416       .  A
C759        C764   1.416       .  A
C760        C761   1.409       .  A
C760        C765   1.452       .  S
C761        C762   1.409       .  A
C761        C768   1.451       .  S
C762        C763   1.410       .  A
C763        C764   1.408       .  A
C763        C766   1.452       .  S
C764        C767   1.452       .  S
C765        N772   1.157       .  T
C766        N771   1.157       .  T
C767        N769   1.157       .  T
C768        N770   1.157       .  T
C773        C774   1.409       .  A
C773        C778   1.410       .  A
C774        C775   1.411       .  A
C774        C779   1.451       .  S
C775        C776   1.418       .  A
C775        C782   1.452       .  S
C776        C777   1.416       .  A
C777        C778   1.408       .  A
C777        C780   1.450       .  S
C778        C781   1.452       .  S
C779        N786   1.157       .  T
C780        N785   1.157       .  T
C781        N783   1.157       .  T
C782        N784   1.157       .  T
C787        C788   1.410       .  A
C787        C792   1.413       .  A
C788        C789   1.411       .  A
C788        C793   1.453       .  S
C789        C790   1.426       .  A
C789        C796   1.452       .  S
C790        C791   1.423       .  A
C791        C792   1.414       .  A
C791        C794   1.452       .  S
C792        C795   1.453       .  S
C793        N800   1.157       .  T
C794        N799   1.158       .  T
C795        N797   1.157       .  T
C796        N798   1.157       .  T
C801        C802   1.414       .  A
C801        C806   1.413       .  A
C802        C803   1.410       .  A
C802        C807   1.450       .  S
C803        C804   1.409       .  A
C803        C810   1.451       .  S
C804        C805   1.410       .  A
C805        C806   1.411       .  A
C805        C808   1.451       .  S
C806        C809   1.451       .  S
C807        N814   1.157       .  T
C808        N813   1.157       .  T
C809        N811   1.157       .  T
C810        N812   1.157       .  T
C815        C816   1.417       .  A
C815        C820   1.416       .  A
C816        C817   1.413       .  A
C816        C821   1.451       .  S
C817        C818   1.411       .  A
C817        C824   1.452       .  S
C818        C819   1.412       .  A
C819        C820   1.412       .  A
C819        C822   1.452       .  S
C820        C823   1.451       .  S
C821        N828   1.157       .  T
C822        N827   1.157       .  T
C823        N825   1.157       .  T
C824        N826   1.157       .  T
C829        C830   1.411       .  A
C829        C834   1.412       .  A
C830        C831   1.409       .  A
C830        C835   1.451       .  S
C831        C832   1.415       .  A
C831        C838   1.452       .  S
C832        C833   1.413       .  A
C833        C834   1.410       .  A
C833        C836   1.452       .  S
C834        C837   1.451       .  S
C835        N842   1.157       .  T
C836        N841   1.157       .  T
C837        N839   1.157       .  T
C838        N840   1.157       .  T
C843        C844   1.414       .  A
C843        C848   1.413       .  A
C844        C845   1.410       .  A
C844        C849   1.451       .  S
C845        C846   1.413       .  A
C845        C852   1.451       .  S
C846        C847   1.414       .  A
C847        C848   1.411       .  A
C847        C850   1.452       .  S
C848        C851   1.451       .  S
C849        N856   1.157       .  T
C850        N855   1.157       .  T
C851        N853   1.157       .  T
C852        N854   1.157       .  T
C857        C858   1.410       .  A
C857        C862   1.411       .  A
C858        C859   1.411       .  A
C858        C863   1.452       .  S
C859        C860   1.417       .  A
C859        C866   1.451       .  S
C860        C861   1.415       .  A
C861        C862   1.409       .  A
C861        C864   1.451       .  S
C862        C865   1.452       .  S
C863        N870   1.157       .  T
C864        N869   1.157       .  T
C865        N867   1.157       .  T
C866        N868   1.157       .  T
C871        C872   1.412       .  A
C871        C876   1.411       .  A
C872        C873   1.412       .  A
C872        C877   1.451       .  S
C873        C874   1.416       .  A
C873        C880   1.451       .  S
C874        C875   1.418       .  A
C875        C876   1.411       .  A
C875        C878   1.452       .  S
C876        C879   1.452       .  S
C877        N884   1.157       .  T
C878        N883   1.157       .  T
C879        N881   1.157       .  T
C880        N882   1.157       .  T
C885        C886   1.411       .  A
C885        C890   1.412       .  A
C886        C887   1.415       .  A
C886        C891   1.453       .  S
C887        C888   1.427       .  A
C887        C894   1.452       .  S
C888        C889   1.425       .  A
C889        C890   1.413       .  A
C889        C892   1.452       .  S
C890        C893   1.453       .  S
C891        N898   1.157       .  T
C892        N897   1.158       .  T
C893        N895   1.157       .  T
C894        N896   1.158       .  T
C899        C900   1.411       .  A
C899        C904   1.410       .  A
C900        C901   1.409       .  A
C900        C905   1.452       .  S
C901        C902   1.413       .  A
C901        C908   1.451       .  S
C902        C903   1.416       .  A
C903        C904   1.411       .  A
C903        C906   1.451       .  S
C904        C907   1.452       .  S
C905        N912   1.157       .  T
C906        N911   1.157       .  T
C907        N909   1.157       .  T
C908        N910   1.157       .  T
C913        C914   1.411       .  A
C913        C918   1.411       .  A
C914        C915   1.410       .  A
C914        C919   1.452       .  S
C915        C916   1.416       .  A
C915        C922   1.451       .  S
C916        C917   1.417       .  A
C917        C918   1.409       .  A
C917        C920   1.452       .  S
C918        C921   1.452       .  S
C919        N926   1.157       .  T
C920        N925   1.157       .  T
C921        N923   1.157       .  T
C922        N924   1.157       .  T
C927        C928   1.410       .  A
C927        C932   1.411       .  A
C928        C929   1.411       .  A
C928        C933   1.452       .  S
C929        C930   1.417       .  A
C929        C936   1.451       .  S
C930        C931   1.418       .  A
C931        C932   1.410       .  A
C931        C934   1.451       .  S
C932        C935   1.453       .  S
C933        N940   1.157       .  T
C934        N939   1.157       .  T
C935        N937   1.157       .  T
C936        N938   1.157       .  T
C941        C942   1.413       .  A
C941        C946   1.411       .  A
C942        C943   1.412       .  A
C942        C947   1.453       .  S
C943        C944   1.424       .  A
C943        C950   1.452       .  S
C944        C945   1.423       .  A
C945        C946   1.412       .  A
C945        C948   1.452       .  S
C946        C949   1.453       .  S
C947        N954   1.157       .  T
C948        N953   1.157       .  T
C949        N951   1.157       .  T
C950        N952   1.158       .  T
C955        C956   1.412       .  A
C955        C960   1.410       .  A
C956        C957   1.409       .  A
C956        C961   1.452       .  S
C957        C958   1.415       .  A
C957        C964   1.451       .  S
C958        C959   1.416       .  A
C959        C960   1.410       .  A
C959        C962   1.452       .  S
C960        C963   1.451       .  S
C961        N968   1.157       .  T
C962        N967   1.157       .  T
C963        N965   1.157       .  T
C964        N966   1.157       .  T
C969        C970   1.411       .  A
C969        C974   1.410       .  A
C970        C971   1.411       .  A
C970        C975   1.452       .  S
C971        C972   1.416       .  A
C971        C978   1.451       .  S
C972        C973   1.417       .  A
C973        C974   1.412       .  A
C973        C976   1.450       .  S
C974        C977   1.452       .  S
C975        N982   1.157       .  T
C976        N981   1.157       .  T
C977        N979   1.157       .  T
C978        N980   1.157       .  T
C983        C984   1.417       .  A
C983        C988   1.418       .  A
C984        C985   1.410       .  A
C984        C989   1.451       .  S
C985        C986   1.410       .  A
C985        C992   1.452       .  S
C986        C987   1.409       .  A
C987        C988   1.410       .  A
C987        C990   1.452       .  S
C988        C991   1.452       .  S
C989        N996   1.157       .  T
C990        N995   1.157       .  T
C991        N993   1.157       .  T
C992        N994   1.157       .  T
C997        C998   1.411       .  A
C997       C1002   1.411       .  A
C998        C999   1.413       .  A
C998       C1003   1.452       .  S
C999       C1000   1.417       .  A
C999       C1006   1.451       .  S
C1000      C1001   1.416       .  A
C1001      C1002   1.412       .  A
C1001      C1004   1.451       .  S
C1002      C1005   1.452       .  S
C1003      N1010   1.157       .  T
C1004      N1009   1.157       .  T
C1005      N1007   1.157       .  T
C1006      N1008   1.157       .  T
C1011      C1012   1.416       .  A
C1011      C1016   1.416       .  A
C1012      C1013   1.411       .  A
C1012      C1017   1.452       .  S
C1013      C1014   1.412       .  A
C1013      C1020   1.452       .  S
C1014      C1015   1.412       .  A
C1015      C1016   1.411       .  A
C1015      C1018   1.452       .  S
C1016      C1019   1.451       .  S
C1017      N1024   1.157       .  T
C1018      N1023   1.157       .  T
C1019      N1021   1.157       .  T
C1020      N1022   1.157       .  T
C1025      C1026   1.409       .  A
C1025      C1030   1.410       .  A
C1026      C1027   1.410       .  A
C1026      C1031   1.451       .  S
C1027      C1028   1.415       .  A
C1027      C1034   1.451       .  S
C1028      C1029   1.414       .  A
C1029      C1030   1.409       .  A
C1029      C1032   1.451       .  S
C1030      C1033   1.452       .  S
C1031      N1038   1.157       .  T
C1032      N1037   1.157       .  T
C1033      N1035   1.157       .  T
C1034      N1036   1.157       .  T
C1039      C1040   1.410       .  A
C1039      C1044   1.410       .  A
C1040      C1041   1.413       .  A
C1040      C1045   1.453       .  S
C1041      C1042   1.426       .  A
C1041      C1048   1.452       .  S
C1042      C1043   1.425       .  A
C1043      C1044   1.413       .  A
C1043      C1046   1.451       .  S
C1044      C1047   1.453       .  S
C1045      N1052   1.157       .  T
C1046      N1051   1.158       .  T
C1047      N1049   1.157       .  T
C1048      N1050   1.158       .  T
C1053      C1054   1.411       .  A
C1053      C1058   1.411       .  A
C1054      C1055   1.409       .  A
C1054      C1059   1.452       .  S
C1055      C1056   1.417       .  A
C1055      C1062   1.452       .  S
C1056      C1057   1.417       .  A
C1057      C1058   1.410       .  A
C1057      C1060   1.451       .  S
C1058      C1061   1.452       .  S
C1059      N1066   1.157       .  T
C1060      N1065   1.157       .  T
C1061      N1063   1.157       .  T
C1062      N1064   1.157       .  T
C1067      C1068   1.415       .  A
C1067      C1072   1.416       .  A
C1068      C1069   1.412       .  A
C1068      C1073   1.451       .  S
C1069      C1070   1.412       .  A
C1069      C1076   1.451       .  S
C1070      C1071   1.411       .  A
C1071      C1072   1.411       .  A
C1071      C1074   1.451       .  S
C1072      C1075   1.452       .  S
C1073      N1080   1.157       .  T
C1074      N1079   1.157       .  T
C1075      N1077   1.157       .  T
C1076      N1078   1.157       .  T
C1081      C1082   1.417       .  A
C1081      C1086   1.417       .  A
C1082      C1083   1.413       .  A
C1082      C1087   1.451       .  S
C1083      C1084   1.412       .  A
C1083      C1090   1.451       .  S
C1084      C1085   1.412       .  A
C1085      C1086   1.412       .  A
C1085      C1088   1.451       .  S
C1086      C1089   1.452       .  S
C1087      N1094   1.157       .  T
C1088      N1093   1.157       .  T
C1089      N1091   1.157       .  T
C1090      N1092   1.157       .  T
C1095      C1096   1.409       .  A
C1095      C1100   1.411       .  A
C1096      C1097   1.409       .  A
C1096      C1101   1.452       .  S
C1097      C1098   1.415       .  A
C1097      C1104   1.451       .  S
C1098      C1099   1.414       .  A
C1099      C1100   1.408       .  A
C1099      C1102   1.451       .  S
C1100      C1103   1.452       .  S
C1101      N1108   1.157       .  T
C1102      N1107   1.157       .  T
C1103      N1105   1.157       .  T
C1104      N1106   1.157       .  T
C1109      C1110   1.412       .  A
C1109      C1114   1.411       .  A
C1110      C1111   1.410       .  A
C1110      C1115   1.451       .  S
C1111      C1112   1.413       .  A
C1111      C1118   1.449       .  S
C1112      C1113   1.417       .  A
C1113      C1114   1.412       .  A
C1113      C1116   1.452       .  S
C1114      C1117   1.451       .  S
C1115      N1122   1.157       .  T
C1116      N1121   1.157       .  T
C1117      N1119   1.157       .  T
C1118      N1120   1.157       .  T
C1123      C1124   1.412       .  A
C1123      C1128   1.411       .  A
C1124      C1125   1.412       .  A
C1124      C1129   1.453       .  S
C1125      C1126   1.423       .  A
C1125      C1132   1.452       .  S
C1126      C1127   1.425       .  A
C1127      C1128   1.412       .  A
C1127      C1130   1.452       .  S
C1128      C1131   1.453       .  S
C1129      N1136   1.157       .  T
C1130      N1135   1.158       .  T
C1131      N1133   1.157       .  T
C1132      N1134   1.157       .  T
C1137      C1138   1.412       .  A
C1137      C1142   1.411       .  A
C1138      C1139   1.413       .  A
C1138      C1143   1.451       .  S
C1139      C1140   1.417       .  A
C1139      C1146   1.451       .  S
C1140      C1141   1.416       .  A
C1141      C1142   1.410       .  A
C1141      C1144   1.451       .  S
C1142      C1145   1.452       .  S
C1143      N1150   1.157       .  T
C1144      N1149   1.157       .  T
C1145      N1147   1.157       .  T
C1146      N1148   1.157       .  T
C1151      C1152   1.412       .  A
C1151      C1156   1.410       .  A
C1152      C1153   1.412       .  A
C1152      C1157   1.452       .  S
C1153      C1154   1.416       .  A
C1153      C1160   1.451       .  S
C1154      C1155   1.417       .  A
C1155      C1156   1.412       .  A
C1155      C1158   1.451       .  S
C1156      C1159   1.452       .  S
C1157      N1164   1.157       .  T
C1158      N1163   1.157       .  T
C1159      N1161   1.157       .  T
C1160      N1162   1.157       .  T
C1165      C1166   1.411       .  A
C1165      C1170   1.412       .  A
C1166      C1167   1.409       .  A
C1166      C1171   1.451       .  S
C1167      C1168   1.416       .  A
C1167      C1174   1.452       .  S
C1168      C1169   1.413       .  A
C1169      C1170   1.409       .  A
C1169      C1172   1.452       .  S
C1170      C1173   1.451       .  S
C1171      N1178   1.157       .  T
C1172      N1177   1.157       .  T
C1173      N1175   1.157       .  T
C1174      N1176   1.157       .  T
C1179      C1180   1.410       .  A
C1179      C1184   1.410       .  A
C1180      C1181   1.411       .  A
C1180      C1185   1.452       .  S
C1181      C1182   1.416       .  A
C1181      C1188   1.451       .  S
C1182      C1183   1.416       .  A
C1183      C1184   1.411       .  A
C1183      C1186   1.451       .  S
C1184      C1187   1.452       .  S
C1185      N1192   1.157       .  T
C1186      N1191   1.157       .  T
C1187      N1189   1.157       .  T
C1188      N1190   1.157       .  T
C1193      C1194   1.409       .  A
C1193      C1198   1.409       .  A
C1194      C1195   1.411       .  A
C1194      C1199   1.453       .  S
C1195      C1196   1.425       .  A
C1195      C1202   1.452       .  S
C1196      C1197   1.426       .  A
C1197      C1198   1.411       .  A
C1197      C1200   1.452       .  S
C1198      C1201   1.453       .  S
C1199      N1206   1.157       .  T
C1200      N1205   1.158       .  T
C1201      N1203   1.157       .  T
C1202      N1204   1.158       .  T
C1207      C1208   1.409       .  A
C1207      C1212   1.408       .  A
C1208      C1209   1.408       .  A
C1208      C1213   1.452       .  S
C1209      C1210   1.414       .  A
C1209      C1216   1.452       .  S
C1210      C1211   1.414       .  A
C1211      C1212   1.407       .  A
C1211      C1214   1.452       .  S
C1212      C1215   1.451       .  S
C1213      N1220   1.157       .  T
C1214      N1219   1.157       .  T
C1215      N1217   1.157       .  T
C1216      N1218   1.157       .  T
C1221      C1222   1.409       .  A
C1221      C1226   1.409       .  A
C1222      C1223   1.410       .  A
C1222      C1227   1.452       .  S
C1223      C1224   1.417       .  A
C1223      C1230   1.451       .  S
C1224      C1225   1.418       .  A
C1225      C1226   1.409       .  A
C1225      C1228   1.451       .  S
C1226      C1229   1.453       .  S
C1227      N1234   1.157       .  T
C1228      N1233   1.157       .  T
C1229      N1231   1.157       .  T
C1230      N1232   1.157       .  T
C1235      C1236   1.411       .  A
C1235      C1240   1.410       .  A
C1236      C1237   1.414       .  A
C1236      C1241   1.453       .  S
C1237      C1238   1.425       .  A
C1237      C1244   1.452       .  S
C1238      C1239   1.426       .  A
C1239      C1240   1.411       .  A
C1239      C1242   1.452       .  S
C1240      C1243   1.453       .  S
C1241      N1248   1.157       .  T
C1242      N1247   1.158       .  T
C1243      N1245   1.157       .  T
C1244      N1246   1.158       .  T
C1249      C1250   1.425       .  A
C1249      C1254   1.424       .  A
C1250      C1251   1.414       .  A
C1250      C1255   1.452       .  S
C1251      C1252   1.410       .  A
C1251      C1258   1.452       .  S
C1252      C1253   1.411       .  A
C1253      C1254   1.413       .  A
C1253      C1256   1.453       .  S
C1254      C1257   1.452       .  S
C1255      N1262   1.158       .  T
C1256      N1261   1.157       .  T
C1257      N1259   1.158       .  T
C1258      N1260   1.157       .  T
C1263      C1264   1.410       .  A
C1263      C1268   1.411       .  A
C1264      C1265   1.410       .  A
C1264      C1269   1.452       .  S
C1265      C1266   1.417       .  A
C1265      C1272   1.451       .  S
C1266      C1267   1.417       .  A
C1267      C1268   1.411       .  A
C1267      C1270   1.451       .  S
C1268      C1271   1.452       .  S
C1269      N1276   1.157       .  T
C1270      N1275   1.157       .  T
C1271      N1273   1.157       .  T
C1272      N1274   1.157       .  T
C1277      C1278   1.416       .  A
C1277      C1282   1.414       .  A
C1278      C1279   1.411       .  A
C1278      C1283   1.451       .  S
C1279      C1280   1.409       .  A
C1279      C1286   1.451       .  S
C1280      C1281   1.410       .  A
C1281      C1282   1.409       .  A
C1281      C1284   1.451       .  S
C1282      C1285   1.450       .  S
C1283      N1290   1.157       .  T
C1284      N1289   1.157       .  T
C1285      N1287   1.157       .  T
C1286      N1288   1.157       .  T
C1291      C1292   1.415       .  A
C1291      C1296   1.416       .  A
C1292      C1293   1.409       .  A
C1292      C1297   1.449       .  S
C1293      C1294   1.409       .  A
C1293      C1300   1.452       .  S
C1294      C1295   1.410       .  A
C1295      C1296   1.410       .  A
C1295      C1298   1.451       .  S
C1296      C1299   1.451       .  S
C1297      N1304   1.156       .  T
C1298      N1303   1.157       .  T
C1299      N1301   1.157       .  T
C1300      N1302   1.157       .  T
C1305      C1306   1.409       .  A
C1305      C1310   1.410       .  A
C1306      C1307   1.409       .  A
C1306      C1311   1.451       .  S
C1307      C1308   1.415       .  A
C1307      C1314   1.451       .  S
C1308      C1309   1.417       .  A
C1309      C1310   1.409       .  A
C1309      C1312   1.452       .  S
C1310      C1313   1.452       .  S
C1311      N1318   1.157       .  T
C1312      N1317   1.158       .  T
C1313      N1315   1.157       .  T
C1314      N1316   1.157       .  T
C1319      C1320   1.410       .  A
C1319      C1324   1.409       .  A
C1320      C1321   1.410       .  A
C1320      C1325   1.452       .  S
C1321      C1322   1.416       .  A
C1321      C1328   1.451       .  S
C1322      C1323   1.417       .  A
C1323      C1324   1.409       .  A
C1323      C1326   1.451       .  S
C1324      C1327   1.452       .  S
C1325      N1332   1.157       .  T
C1326      N1331   1.157       .  T
C1327      N1329   1.157       .  T
C1328      N1330   1.157       .  T
C1333      C1334   1.414       .  A
C1333      C1338   1.413       .  A
C1334      C1335   1.406       .  A
C1334      C1339   1.452       .  S
C1335      C1336   1.410       .  A
C1335      C1342   1.452       .  S
C1336      C1337   1.411       .  A
C1337      C1338   1.408       .  A
C1337      C1340   1.452       .  S
C1338      C1341   1.451       .  S
C1339      N1346   1.157       .  T
C1340      N1345   1.157       .  T
C1341      N1343   1.157       .  T
C1342      N1344   1.157       .  T
C1347      C1348   1.413       .  A
C1347      C1352   1.414       .  A
C1348      C1349   1.410       .  A
C1348      C1353   1.451       .  S
C1349      C1350   1.411       .  A
C1349      C1356   1.451       .  S
C1350      C1351   1.410       .  A
C1351      C1352   1.409       .  A
C1351      C1354   1.451       .  S
C1352      C1355   1.452       .  S
C1353      N1360   1.157       .  T
C1354      N1359   1.157       .  T
C1355      N1357   1.157       .  T
C1356      N1358   1.157       .  T
C1361      C1362   1.413       .  A
C1361      C1366   1.414       .  A
C1362      C1363   1.406       .  A
C1362      C1367   1.450       .  S
C1363      C1364   1.410       .  A
C1363      C1370   1.452       .  S
C1364      C1365   1.409       .  A
C1365      C1366   1.408       .  A
C1365      C1368   1.451       .  S
C1366      C1369   1.452       .  S
C1367      N1374   1.157       .  T
C1368      N1373   1.157       .  T
C1369      N1371   1.157       .  T
C1370      N1372   1.157       .  T
C1375      C1376   1.415       .  A
C1375      C1380   1.413       .  A
C1376      C1377   1.409       .  A
C1376      C1381   1.452       .  S
C1377      C1378   1.410       .  A
C1377      C1384   1.451       .  S
C1378      C1379   1.411       .  A
C1379      C1380   1.408       .  A
C1379      C1382   1.452       .  S
C1380      C1383   1.450       .  S
C1381      N1388   1.157       .  T
C1382      N1387   1.157       .  T
C1383      N1385   1.157       .  T
C1384      N1386   1.157       .  T
C1389      C1390   1.411       .  A
C1389      C1394   1.411       .  A
C1390      C1391   1.411       .  A
C1390      C1395   1.452       .  S
C1391      C1392   1.417       .  A
C1391      C1398   1.451       .  S
C1392      C1393   1.417       .  A
C1393      C1394   1.412       .  A
C1393      C1396   1.451       .  S
C1394      C1397   1.452       .  S
C1395      N1402   1.157       .  T
C1396      N1401   1.157       .  T
C1397      N1399   1.157       .  T
C1398      N1400   1.157       .  T
C1403      C1404   1.425       .  A
C1403      C1408   1.425       .  A
C1404      C1405   1.410       .  A
C1404      C1409   1.452       .  S
C1405      C1406   1.410       .  A
C1405      C1412   1.454       .  S
C1406      C1407   1.410       .  A
C1407      C1408   1.414       .  A
C1407      C1410   1.453       .  S
C1408      C1411   1.451       .  S
C1409      N1416   1.158       .  T
C1410      N1415   1.157       .  T
C1411      N1413   1.158       .  T
C1412      N1414   1.157       .  T
