geometry optimzed in LAMMPS
_audit_creation_date              2020-12-01 
_audit_creation_method            'lammps2cif' 
_symmetry_space_group_name_H-M    'P1' 
_symmetry_Int_Tables_number       1 
_symmetry_cell_setting            triclinic 
loop_ 
_symmetry_equiv_pos_as_xyz 
  x,y,z 
_cell_length_a                    55.56044313 
_cell_length_b                    55.25143722674435 
_cell_length_c                    55.46378573433154 
_cell_angle_alpha                 90.08071787538827 
_cell_angle_beta                  90.06720420385928 
_cell_angle_gamma                 89.88852879336001 
loop_ 
_atom_site_label 
_atom_site_type_symbol 
_atom_site_fract_x 
_atom_site_fract_y 
_atom_site_fract_z 
_atom_site_charge 
C1          C  0.06816288  0.71259784  0.95791564     0.81100
N2          N  0.06768554  0.71718205  0.93401075    -0.77200
C3          C  0.05219862  0.70574088  0.91904519     0.83600
N4          N  0.03706687  0.68864889  0.92814592    -0.77100
C5          C  0.03719948  0.68389761  0.95232801     0.83700
N6          N  0.05261880  0.69610753  0.96721371    -0.78800
C7          C  0.88731802  0.70392048  0.94040964     0.81100
N8          N  0.89886986  0.68779165  0.95491861    -0.77200
C9          C  0.92284329  0.68354261  0.95176298     0.83600
N10         N  0.93510394  0.69528963  0.93411542    -0.77100
C11         C  0.92339079  0.71087916  0.91931430     0.83700
N12         N  0.89963882  0.71501030  0.92255142    -0.78800
C13         C  0.92217394  0.70482560  0.10328727     0.81100
N14         N  0.90597309  0.71940714  0.09220793    -0.77200
C15         C  0.90226534  0.71814459  0.06812086     0.83600
N16         N  0.91488639  0.70180167  0.05481847    -0.77100
C17         C  0.93087908  0.68668084  0.06578737     0.83700
N18         N  0.93454731  0.68824961  0.09004619    -0.78800
C19         C  0.03795827  0.71656262  0.08730536     0.81100
N20         N  0.06225469  0.71642175  0.08641107    -0.77200
C21         C  0.07443142  0.70107724  0.07191554     0.83600
N22         N  0.06200307  0.68510257  0.05810319    -0.77100
C23         C  0.03745653  0.68493599  0.05875119     0.83700
N24         N  0.02537647  0.70080058  0.07328907    -0.78800
C25         C  0.92223885  0.50086434  0.10293868     0.81100
N26         N  0.93417183  0.51821556  0.09037505    -0.77200
C27         C  0.92763420  0.52316319  0.06718310     0.83600
N28         N  0.90896513  0.51112301  0.05679099    -0.77100
C29         C  0.89664354  0.49441455  0.06968626     0.83700
N30         N  0.90340890  0.48939283  0.09254260    -0.78800
C31         C  0.88301477  0.49978493  0.94831957     0.81100
N32         N  0.89447300  0.48804515  0.93018108    -0.77200
C33         C  0.91806545  0.49172257  0.92555453     0.83600
N34         N  0.93063459  0.50769098  0.93931833    -0.77100
C35         C  0.91936060  0.52023632  0.95728303     0.83700
N36         N  0.89541784  0.51637138  0.96170559    -0.78800
C37         C  0.06417292  0.49210621  0.95175180     0.81100
N38         N  0.06357223  0.49230622  0.92734407    -0.77200
C39         C  0.04772205  0.50647497  0.91537486     0.83600
N40         N  0.03271287  0.52103019  0.92795053    -0.77100
C41         C  0.03322107  0.52104572  0.95238977     0.83700
N42         N  0.04881551  0.50640133  0.96442750    -0.78800
C43         C  0.03345909  0.49694870  0.09920711     0.81100
N44         N  0.05508527  0.48794120  0.09278021    -0.77200
C45         C  0.06661855  0.49580887  0.07281861     0.83600
N46         N  0.05606678  0.51289198  0.05865821    -0.77100
C47         C  0.03396139  0.52181341  0.06462716     0.83700
N48         N  0.02284480  0.51415879  0.08521809    -0.78800
O49         O  0.02381710  0.64324615  0.95447074    -0.74400
O50         O  0.00782397  0.67134139  0.98019044    -0.53300
C51         C  0.02159188  0.66503515  0.96261808     0.79300
O52         O  0.92514074  0.56140982  0.96716613    -0.59000
O53         O  0.95158304  0.53349410  0.98216746    -0.52000
C54         C  0.93268398  0.53951851  0.97004106     0.71300
O55         O  0.92774242  0.64296632  0.96299609    -0.73600
O56         O  0.95311534  0.67138100  0.97888679    -0.54100
C57         C  0.93518478  0.66484434  0.96572610     0.77400
O58         O  0.02242796  0.56122161  0.95727018    -0.58700
O59         O  0.00639446  0.53318610  0.98292500    -0.51800
C60         C  0.01969741  0.53952313  0.96511936     0.73900
Zr61       Zr  0.01134032  0.60255212  0.96744300     2.54700
O62         O  0.00610341  0.60032715  0.92389077    -0.79300
O63         O  0.05498903  0.60305557  0.96302470    -0.92700
Zr64       Zr  0.94054757  0.60236644  0.97477291     2.64700
O65         O  0.94101987  0.59991302  0.93088475    -0.97600
O66         O  0.89682415  0.60470987  0.97516778    -0.79700
O67         O  0.97581454  0.62623656  0.97000301    -0.83100
O68         O  0.97594383  0.57871072  0.97112809    -2.17800
O69         O  0.03063844  0.56237335  0.05199489    -0.66400
O70         O  0.00513333  0.53425995  0.03579601    -0.51000
C71         C  0.02265620  0.54060821  0.04965228     0.72300
O72         O  0.93945889  0.64554768  0.05961247    -0.59400
O73         O  0.95446728  0.67315570  0.03296307    -0.51300
C74         C  0.94248239  0.66730382  0.05190689     0.74100
O75         O  0.93722509  0.56393565  0.06053145    -0.70700
O76         O  0.95275780  0.53509547  0.03535669    -0.49400
C77         C  0.94011142  0.54190791  0.05354063     0.75500
O78         O  0.03184080  0.64414928  0.04870052    -0.66100
O79         O  0.00617940  0.67229169  0.03271191    -0.53300
C80         C  0.02431181  0.66600662  0.04574555     0.73900
Zr81       Zr  0.01918542  0.60307283  0.03846488     2.77500
O82         O  0.02510867  0.60603204  0.08187559    -0.96800
O83         O  0.06220200  0.60202468  0.03017931    -0.77600
Zr84       Zr  0.94824737  0.60423670  0.04631887     2.70100
O85         O  0.95605691  0.60404873  0.08953397    -0.78900
O86         O  0.90475654  0.60513342  0.05149299    -0.98000
Zr87       Zr  0.97982986  0.64966642  0.00596789     2.21500
Zr88       Zr  0.97920085  0.55635186  0.00789670     2.11100
O89         O  0.98341194  0.58031474  0.04341989    -2.46700
O90         O  0.98393374  0.62714859  0.04231444    -0.78700
O91         O  0.01541541  0.57912419  0.00321566    -0.70900
O92         O  0.94373674  0.62660770  0.01008936    -2.31800
O93         O  0.01574514  0.62617062  0.00275801    -2.28000
O94         O  0.94343211  0.57998953  0.01119848    -0.72600
H95         H  0.97465542  0.56792116  0.95748896     0.79400
H96         H  0.92985020  0.63705211  0.01127445     0.80400
H97         H  0.98452275  0.57043450  0.05773708     0.82700
H98         H  0.02982794  0.63629104  0.00150313     0.80300
H99         H  0.89276681  0.60919469  0.99196542     0.43300
H100        H  0.89864639  0.59294711  0.03990762     0.42300
H101        H  0.96404092  0.61970906  0.09286566     0.42000
H102        H  0.01932816  0.59046090  0.08848769     0.39900
H103        H  0.06386855  0.59087980  0.01629014     0.43000
H104        H  0.06056123  0.58739798  0.96967375     0.37800
H105        H  0.98895164  0.60432545  0.92116613     0.43900
H106        H  0.94610465  0.58314480  0.92713078     0.40300
H107        H  0.04279444  0.60552512  0.08404918     0.45300
H108        H  0.06063681  0.61523785  0.97484321     0.44000
H109        H  0.92383947  0.60050740  0.92616334     0.44100
H110        H  0.90197812  0.59782645  0.06754242     0.44500
C111        C  0.59173932  0.04011731  0.10689479     0.81100
N112        N  0.60496064  0.02295424  0.09545956    -0.77200
C113        C  0.60157595  0.01818714  0.07172732     0.83600
N114        N  0.58467920  0.03066977  0.05919875    -0.77100
C115        C  0.57099361  0.04759327  0.07047733     0.83700
N116        N  0.57440319  0.05225410  0.09439960    -0.78800
C117        C  0.59799137  0.03624318  0.93289369     0.81100
N118        N  0.59747847  0.01182248  0.93518593    -0.77200
C119        C  0.58155871  0.00091153  0.95011613     0.83600
N120        N  0.56544924  0.01466503  0.96251815    -0.77100
C121        C  0.56562345  0.03922197  0.96026907     0.83700
N122        N  0.58216187  0.05000687  0.94568743    -0.78800
C123        C  0.58091608  0.20161753  0.95603354     0.81100
N124        N  0.56573539  0.18633910  0.96792846    -0.77200
C125        C  0.56377384  0.16260899  0.96086690     0.83600
N126        N  0.57669666  0.15449011  0.94145726    -0.77100
C127        C  0.59177333  0.16987738  0.92960448     0.83700
N128        N  0.59367231  0.19303566  0.93713720    -0.78800
C129        C  0.59376323  0.19064749  0.06970614     0.81100
N130        N  0.57731199  0.17721810  0.05754615    -0.77200
C131        C  0.57121097  0.15491298  0.06582354     0.83600
N132        N  0.58211749  0.14581867  0.08587337    -0.77100
C133        C  0.59856671  0.15940475  0.09798896     0.83700
N134        N  0.60405767  0.18181960  0.08996979    -0.78800
C135        C  0.36877672  0.17322507  0.96009866     0.81100
N136        N  0.38841274  0.16434639  0.97155898    -0.77200
C137        C  0.40175199  0.14665607  0.96106639     0.83600
N138        N  0.39569717  0.13803159  0.93888491    -0.77100
C139        C  0.37584906  0.14681030  0.92750565     0.83700
N140        N  0.36253269  0.16428029  0.93827255    -0.78800
C141        C  0.37859332  0.03839839  0.92893026     0.81100
N142        N  0.39729725  0.05006596  0.93972345    -0.77200
C143        C  0.40211067  0.04599456  0.96353525     0.83600
N144        N  0.38814551  0.03042762  0.97639295    -0.77100
C145        C  0.36987396  0.01842850  0.96538784     0.83700
N146        N  0.36515955  0.02272734  0.94185747    -0.78800
C147        C  0.38405943  0.04146756  0.11090540     0.81100
N148        N  0.38065299  0.01749925  0.10788142    -0.77200
C149        C  0.39078566  0.00514121  0.08946649     0.83600
N150        N  0.40553391  0.01713188  0.07383044    -0.77100
C151        C  0.40932641  0.04151570  0.07674397     0.83700
N152        N  0.39834352  0.05362236  0.09519348    -0.78800
C153        C  0.38170121  0.18345121  0.08529697     0.81100
N154        N  0.38221925  0.18036342  0.10941716    -0.77200
C155        C  0.39589110  0.16289473  0.11964561     0.83600
N156        N  0.41005233  0.14871787  0.10530443    -0.77100
C157        C  0.40970285  0.15172888  0.08081474     0.83700
N158        N  0.39516151  0.16888598  0.07086665    -0.78800
O159        O  0.52986302  0.05396114  0.06424580    -0.74400
O160        O  0.55668397  0.07309235  0.03945897    -0.53300
C161        C  0.55129818  0.05911018  0.05724948     0.79300
O162        O  0.44351492  0.05445626  0.96761412    -0.59000
O163        O  0.41684157  0.07186475  0.99388773    -0.52000
C164        C  0.42209171  0.05842597  0.97564218     0.71300
O165        O  0.52509554  0.04734779  0.97007479    -0.73600
O166        O  0.55433658  0.07225776  0.98504902    -0.54100
C167        C  0.54722694  0.05389441  0.97263842     0.77400
O168        O  0.44946601  0.04872050  0.06506507    -0.58700
O169        O  0.41972515  0.07133000  0.04765271    -0.51800
C170        C  0.42720870  0.05448135  0.06190778     0.73900
Zr171      Zr  0.48892761  0.06281661  0.05126397     2.54700
O172        O  0.49026509  0.01900592  0.04658147    -0.79300
O173        O  0.48834466  0.06122961  0.09514693    -0.92700
Zr174      Zr  0.48502742  0.06336810  0.97990190     2.64700
O175        O  0.48018543  0.01962287  0.97756944    -0.97600
O176        O  0.48652973  0.06764100  0.93625453    -0.79700
O177        O  0.51057090  0.06282053  0.01425755    -0.83100
O178        O  0.46360266  0.06237427  0.01699123    -2.17800
O179        O  0.44955784  0.14348166  0.06970028    -0.66400
O180        O  0.41951312  0.12508750  0.04837700    -0.51000
C181        C  0.42725580  0.13899205  0.06541356     0.72300
O182        O  0.52374361  0.15171429  0.96972313    -0.59400
O183        O  0.55381638  0.12858214  0.98585630    -0.51300
C184        C  0.54610735  0.14648202  0.97292088     0.74100
O185        O  0.44323851  0.14075989  0.96618715    -0.70700
O186        O  0.41689206  0.12410941  0.99315448    -0.49400
C187        C  0.42196626  0.13643374  0.97421583     0.75500
O188        O  0.53009528  0.14713750  0.06049177    -0.66100
O189        O  0.55742256  0.12555169  0.03831451    -0.53300
C190        C  0.55171176  0.14158257  0.05412955     0.73900
Zr191      Zr  0.48869253  0.13483451  0.05162665     2.77500
O192        O  0.48620428  0.17883447  0.04961969    -0.96800
O193        O  0.49348005  0.13650177  0.09521059    -0.77600
Zr194      Zr  0.48438963  0.13491752  0.98038267     2.70100
O195        O  0.47862238  0.17849471  0.98317493    -0.78900
O196        O  0.48543231  0.13608965  0.93641559    -0.98000
Zr197      Zr  0.53349048  0.09940889  0.01268699     2.21500
Zr198      Zr  0.44027687  0.09855918  0.01963577     2.11100
O199        O  0.46283997  0.13535257  0.01752417    -2.46700
O200        O  0.50996897  0.13548386  0.01456220    -0.78700
O201        O  0.46568567  0.09870916  0.05410382    -0.70900
O202        O  0.50835071  0.09931760  0.97772862    -2.31800
O203        O  0.51203443  0.09902893  0.05015921    -2.28000
O204        O  0.46136332  0.09891733  0.98214094    -0.72600
H205        H  0.45342539  0.04823841  0.01730764     0.79400
H206        H  0.51794939  0.09944714  0.96318598     0.80400
H207        H  0.45221219  0.14921519  0.01812127     0.82700
H208        H  0.52299313  0.09937265  0.06367072     0.80300
H209        H  0.47421341  0.08007506  0.93255712     0.43300
H210        H  0.49579736  0.15002634  0.93226286     0.42300
H211        H  0.47647025  0.18379918  0.96626270     0.42000
H212        H  0.49951341  0.18360912  0.03877795     0.39900
H213        H  0.49314930  0.15400265  0.09908790     0.43000
H214        H  0.50270636  0.07043279  0.10038375     0.37800
H215        H  0.50718581  0.01529902  0.04238174     0.43900
H216        H  0.48647168  0.01516266  0.96146159     0.40300
H217        H  0.47139874  0.18230564  0.04029375     0.45300
H218        H  0.49212981  0.04416433  0.09908368     0.44000
H219        H  0.49217154  0.01306754  0.98907054     0.44100
H220        H  0.49490666  0.12170036  0.93157744     0.44500
C221        C  0.08500582  0.03845573  0.61414718     0.81100
N222        N  0.07424318  0.01846403  0.62307499    -0.77200
C223        C  0.05191841  0.01179759  0.61600438     0.83600
N224        N  0.03981334  0.02582181  0.59981380    -0.77100
C225        C  0.05019881  0.04643465  0.59108381     0.83700
N226        N  0.07298834  0.05246331  0.59795356    -0.78800
C227        C  0.91463644  0.04880843  0.63128000     0.81100
N228        N  0.92587274  0.06095352  0.61319006    -0.77200
C229        C  0.94314204  0.04958965  0.59984155     0.83600
N230        N  0.94930903  0.02630626  0.60480642    -0.77100
C231        C  0.93853256  0.01456228  0.62330682     0.83700
N232        N  0.92123430  0.02576930  0.63630403    -0.78800
C233        C  0.93503971  0.17907906  0.63471249     0.81100
N234        N  0.91086471  0.17668615  0.63639719    -0.77200
C235        C  0.89846789  0.16264954  0.62069022     0.83600
N236        N  0.91051911  0.15119599  0.60255646    -0.77100
C237        C  0.93492183  0.15358302  0.60071867     0.83700
N238        N  0.94706702  0.16736042  0.61693681    -0.78800
C239        C  0.06537613  0.19997909  0.60965608     0.81100
N240        N  0.04924941  0.18794170  0.59555131    -0.77200
C241        C  0.05137900  0.16350343  0.59240667     0.83600
N242        N  0.06971550  0.15126102  0.60332825    -0.77100
C243        C  0.08612112  0.16346143  0.61685782     0.83700
N244        N  0.08382876  0.18762851  0.61977591    -0.78800
C245        C  0.92616045  0.19682369  0.41299468     0.81100
N246        N  0.93838198  0.18414549  0.43005503    -0.77200
C247        C  0.93019974  0.16207350  0.43721435     0.83600
N248        N  0.91042540  0.15227536  0.42642975    -0.77100
C249        C  0.89827599  0.16507794  0.40935578     0.83700
N250        N  0.90618662  0.18725815  0.40285223    -0.78800
C251        C  0.89213867  0.04591414  0.41855323     0.81100
N252        N  0.90702562  0.05940750  0.43270436    -0.77200
C253        C  0.92935899  0.05075776  0.43852661     0.83600
N254        N  0.93645595  0.02847380  0.43071866    -0.77100
C255        C  0.92161567  0.01509766  0.41657690     0.83700
N256        N  0.89971662  0.02400328  0.41068018    -0.78800
C257        C  0.07701804  0.05438922  0.40205006     0.81100
N258        N  0.06440558  0.03987702  0.38701536    -0.77200
C259        C  0.04127360  0.03394617  0.39169121     0.83600
N260        N  0.03032827  0.04306410  0.41161157    -0.77100
C261        C  0.04298797  0.05730878  0.42717307     0.83700
N262        N  0.06642277  0.06281256  0.42248997    -0.78800
C263        C  0.04892562  0.19376928  0.40573797     0.81100
N264        N  0.03615903  0.18101503  0.42225260    -0.77200
C265        C  0.04483920  0.15980602  0.43110462     0.83600
N266        N  0.06706092  0.15183201  0.42413242    -0.77100
C267        C  0.07985943  0.16445199  0.40735001     0.83700
N268        N  0.07056195  0.18524657  0.39818936    -0.78800
O269        O  0.94962090  0.05533769  0.55837145    -0.74400
O270        O  0.96962618  0.07933210  0.58539677    -0.53300
C271        C  0.95491914  0.06222469  0.57994142     0.79300
O272        O  0.03991945  0.06398205  0.46919972    -0.59000
O273        O  0.01211763  0.08073076  0.44371792    -0.52000
C274        C  0.03091373  0.06792728  0.44809890     0.71300
O275        O  0.04264854  0.05776818  0.55081187    -0.73600
O276        O  0.02191668  0.07688247  0.58101141    -0.54100
C277        C  0.03743797  0.06137234  0.57318380     0.77400
O278        O  0.94292011  0.05629147  0.47785131    -0.58700
O279        O  0.95807690  0.08090627  0.44847962    -0.51800
C280        C  0.94441827  0.06364027  0.45596060     0.73900
Zr281      Zr  0.95827804  0.06823546  0.51704315     2.54700
O282        O  0.96166696  0.02428603  0.51654421    -0.79300
O283        O  0.91449000  0.06821744  0.51881110    -0.92700
Zr284      Zr  0.02922845  0.07263345  0.51138492     2.64700
O285        O  0.03161255  0.02867099  0.50936896    -0.97600
O286        O  0.07255666  0.07876091  0.50908554    -0.79700
O287        O  0.99558831  0.06995863  0.53760928    -0.83100
O288        O  0.99185190  0.07012450  0.49070492    -2.17800
O289        O  0.93850813  0.15252567  0.47794401    -0.66400
O290        O  0.95978891  0.13369538  0.44801001    -0.51000
C291        C  0.94353213  0.14841983  0.45557776     0.72300
O292        O  0.03714258  0.15846871  0.55293862    -0.59400
O293        O  0.02358800  0.13253707  0.58195008    -0.51300
C294        C  0.03606348  0.15084005  0.57480985     0.74100
O295        O  0.03726704  0.15352457  0.47216721    -0.70700
O296        O  0.01470327  0.13251035  0.44473830    -0.49400
C297        C  0.03150920  0.14756946  0.45048710     0.75500
O298        O  0.93974821  0.14653791  0.55918447    -0.66100
O299        O  0.96773782  0.13114926  0.58533071    -0.53300
C300        C  0.94820311  0.14284552  0.58048770     0.73900
Zr301      Zr  0.95355936  0.14001098  0.51783107     2.77500
O302        O  0.95647240  0.18383551  0.52136633    -0.96800
O303        O  0.90976287  0.14001088  0.51965527    -0.77600
Zr304      Zr  0.02469869  0.14408314  0.51326074     2.70100
O305        O  0.02314039  0.18809983  0.51117214    -0.78900
O306        O  0.06848390  0.14351991  0.51476102    -0.98000
Zr307      Zr  0.99491655  0.10585289  0.56153012     2.21500
Zr308      Zr  0.98763372  0.10689085  0.46843794     2.11100
O309        O  0.98749279  0.14306400  0.49206410    -2.46700
O310        O  0.99070183  0.14243068  0.53914245    -0.78700
O311        O  0.95348783  0.10425237  0.49416251    -0.70900
O312        O  0.02928996  0.10798194  0.53586850    -2.31800
O313        O  0.95744353  0.10381708  0.54056396    -2.28000
O314        O  0.02521061  0.10880475  0.48896823    -0.72600
H315        H  0.99177793  0.05623568  0.48009189     0.79400
H316        H  0.04398623  0.10853600  0.54519635     0.80400
H317        H  0.98622738  0.15720705  0.48193136     0.82700
H318        H  0.94414350  0.10250804  0.55166108     0.80300
H319        H  0.07938488  0.06223583  0.50795661     0.43300
H320        H  0.07348860  0.13519439  0.49975921     0.42300
H321        H  0.00932460  0.19175859  0.50049441     0.42000
H322        H  0.94312468  0.18847641  0.53225112     0.39900
H323        H  0.90494889  0.12479673  0.51154505     0.43000
H324        H  0.91030800  0.08214217  0.52925131     0.37800
H325        H  0.94517069  0.01854247  0.51296511     0.43900
H326        H  0.02003903  0.02401020  0.49660496     0.40300
H327        H  0.97121450  0.18665637  0.53100737     0.45300
H328        H  0.91031896  0.05379387  0.52849733     0.44000
H329        H  0.04763372  0.02525837  0.50233616     0.44100
H330        H  0.07324030  0.16060795  0.51236631     0.44500
C331        C  0.98054004  0.39869351  0.28865528     0.04400
S332        S  0.00855716  0.40928693  0.27626692    -0.09600
C333        C  0.99346495  0.42658928  0.25347544    -0.00800
C334        C  0.96936000  0.42918104  0.25496463    -0.00800
S335        S  0.95360494  0.41357838  0.27843329    -0.09600
C336        C  0.96592815  0.34200521  0.32811680    -0.00800
C337        C  0.99023782  0.34155892  0.32932594    -0.00800
S338        S  0.00667281  0.36505985  0.31442868    -0.09600
C339        C  0.97968162  0.37981549  0.30413013     0.04400
S340        S  0.95149422  0.36756809  0.31442140    -0.09600
C341        C  0.27345568  0.10874111  0.31714240     0.04400
S342        S  0.26329527  0.13582380  0.33214938    -0.09600
C343        C  0.23687584  0.12111205  0.34378576    -0.00800
C344        C  0.23460667  0.09702656  0.34052123    -0.00800
S345        S  0.25711682  0.08135120  0.32351051    -0.09600
C346        C  0.31533826  0.09972489  0.26168787    -0.00800
C347        C  0.32280137  0.12206768  0.26826375    -0.00800
S348        S  0.30966966  0.13533859  0.29491157    -0.09600
C349        C  0.29160687  0.10891909  0.30084266     0.04400
S350        S  0.29788124  0.08267786  0.28281368    -0.09600
C351        C  0.22651967  0.36084093  0.02329974     0.04400
S352        S  0.21982893  0.37661436  0.05079355    -0.09600
C353        C  0.19969997  0.39667175  0.03574813    -0.00800
C354        C  0.19417124  0.39216268  0.01248487    -0.00800
S355        S  0.21182621  0.37068293  0.99622815    -0.09600
C356        C  0.27049976  0.30774832  0.01070852    -0.00800
C357        C  0.27029711  0.30740625  0.03506317    -0.00800
S358        S  0.25400211  0.33031857  0.05068224    -0.09600
C359        C  0.24200907  0.34221015  0.02307763     0.04400
S360        S  0.25127322  0.32842681  0.99528227    -0.09600
C361        C  0.69642536  0.10155166  0.28821110     0.04400
S362        S  0.69108578  0.12726287  0.26912775    -0.09600
C363        C  0.67310856  0.11015993  0.24852815    -0.00800
C364        C  0.66646269  0.08749114  0.25486295    -0.00800
S365        S  0.67912814  0.07473122  0.28192705    -0.09600
C366        C  0.74532218  0.09210513  0.33862624    -0.00800
C367        C  0.75107208  0.11441588  0.33054723    -0.00800
S368        S  0.73088528  0.12937774  0.31037086    -0.09600
C369        C  0.71322175  0.10251358  0.30588500     0.04400
S370        S  0.71973845  0.07719602  0.32528615    -0.09600
C371        C  0.97511479  0.85537753  0.27804926     0.04400
S372        S  0.99673659  0.87950385  0.27681032    -0.09600
C373        C  0.98415123  0.89441525  0.30252603    -0.00800
C374        C  0.96573199  0.88373628  0.31422250    -0.00800
S375        S  0.95354699  0.85622824  0.30217311    -0.09600
C376        C  0.96452004  0.80048733  0.23444901    -0.00800
C377        C  0.98252890  0.81197737  0.22278455    -0.00800
S378        S  0.99638188  0.83745694  0.23709033    -0.09600
C379        C  0.97504497  0.83757286  0.26134825     0.04400
S380        S  0.95362634  0.81322257  0.26215096    -0.09600
C381        C  0.26769363  0.08807462  0.71983232     0.04400
S382        S  0.25311034  0.11558422  0.71040306    -0.09600
C383        C  0.23121680  0.09950308  0.69288292    -0.00800
C384        C  0.23448906  0.07548180  0.68940571    -0.00800
S385        S  0.25741257  0.06035254  0.70640523    -0.09600
C386        C  0.31360641  0.07600706  0.77166859    -0.00800
C387        C  0.31393515  0.10045761  0.77140563    -0.00800
S388        S  0.29694177  0.11595291  0.74871241    -0.09600
C389        C  0.28531163  0.08814445  0.73661570     0.04400
S390        S  0.29772483  0.06041059  0.74829090    -0.09600
C391        C  0.00526272  0.37769594  0.75595970     0.04400
S392        S  0.98344636  0.37776545  0.77995113    -0.09600
C393        C  0.99489004  0.40528801  0.79237837    -0.00800
C394        C  0.01280987  0.41671911  0.78062905    -0.00800
S395        S  0.02523747  0.40309066  0.75410485    -0.09600
C396        C  0.01565142  0.33154542  0.70331152    -0.00800
C397        C  0.99856624  0.31979830  0.71604032    -0.00800
S398        S  0.98667055  0.33390423  0.74250536    -0.09600
C399        C  0.00645218  0.35930884  0.73998687     0.04400
S400        S  0.02766293  0.35909925  0.71546106    -0.09600
C401        C  0.25723120  0.84368703  0.04176562     0.04400
S402        S  0.28210720  0.84413180  0.06276076    -0.09600
C403        C  0.29510492  0.87072866  0.04919535    -0.00800
C404        C  0.28248890  0.88195942  0.03162022    -0.00800
S405        S  0.25549688  0.86825688  0.02069578    -0.09600
C406        C  0.20343094  0.79901342  0.03046971    -0.00800
C407        C  0.21410078  0.78771077  0.04922127    -0.00800
S408        S  0.24039913  0.80129557  0.06257727    -0.09600
C409        C  0.24043896  0.82592614  0.04136831     0.04400
S410        S  0.21687414  0.82601759  0.01903731    -0.09600
C411        C  0.68644569  0.38379196  0.01745270     0.04400
S412        S  0.68356892  0.36440237  0.04329795    -0.09600
C413        C  0.66241652  0.34513646  0.02850439    -0.00800
C414        C  0.65375280  0.35149970  0.00663446    -0.00800
S415        S  0.66605948  0.37825183  0.99272640    -0.09600
C416        C  0.73401605  0.43491029  0.00422177    -0.00800
C417        C  0.74242413  0.42580743  0.02517813    -0.00800
S418        S  0.72455956  0.40442976  0.04129511    -0.09600
C419        C  0.70354798  0.40124652  0.01684448     0.04400
S420        S  0.70697284  0.42184797  0.99183803    -0.09600
C421        C  0.00013459  0.81059124  0.73693563     0.04400
S422        S  0.02648395  0.79279549  0.74365738    -0.09600
C423        C  0.01286931  0.77980040  0.77010167    -0.00800
C424        C  0.99098932  0.78796130  0.77702094    -0.00800
S425        S  0.97559434  0.80883942  0.75789965    -0.09600
C426        C  0.98554104  0.86108102  0.69088190    -0.00800
C427        C  0.00846226  0.85667258  0.68415404    -0.00800
S428        S  0.02341520  0.83094544  0.69745172    -0.09600
C429        C  0.99851506  0.82523752  0.71747547     0.04400
S430        S  0.97089858  0.84087317  0.71100995    -0.09600
C431        C  0.71532405  0.10765647  0.75948920     0.04400
S432        S  0.69406890  0.13182780  0.76405467    -0.09600
C433        C  0.68235623  0.11825595  0.79093395    -0.00800
C434        C  0.69209660  0.09728029  0.79881812    -0.00800
S435        S  0.71477433  0.08310015  0.78072858    -0.09600
C436        C  0.76900290  0.10016726  0.71462081    -0.00800
C437        C  0.75942994  0.12100631  0.70611144    -0.00800
S438        S  0.73276099  0.13271645  0.72016948    -0.09600
C439        C  0.73138770  0.10802687  0.74122363     0.04400
S440        S  0.75281004  0.08395346  0.73730758    -0.09600
C441        C  0.69826001  0.83252656  0.00071123     0.04400
S442        S  0.69600129  0.85420483  0.02455604    -0.09600
C443        C  0.67192555  0.86981663  0.01021805    -0.00800
C444        C  0.66189855  0.86001796  0.99023069    -0.00800
S445        S  0.67573516  0.83352471  0.97745478    -0.09600
C446        C  0.74645827  0.78198773  0.99129274    -0.00800
C447        C  0.75608656  0.79386054  0.01030674    -0.00800
S448        S  0.73895783  0.81742617  0.02387339    -0.09600
C449        C  0.71645399  0.81643479  0.00065370     0.04400
S450        S  0.71947389  0.79363935  0.97778047    -0.09600
C451        C  0.02108832  0.25561423  0.39018357     0.16800
C452        C  0.00780305  0.27721679  0.38934700    -0.32200
C453        C  0.01071975  0.29210925  0.36906251     0.21200
C454        C  0.02608090  0.28577322  0.35040917     0.03400
C455        C  0.03974221  0.26444760  0.35149924    -0.21900
C456        C  0.03685876  0.24957090  0.37176451     0.12600
S457        S  0.01921813  0.23441647  0.41253315    -0.05600
C458        C  0.04002836  0.21731206  0.39694008    -0.09000
C459        C  0.04798965  0.22777153  0.37569115    -0.25700
S460        S  0.02541791  0.30514113  0.32640132    -0.02900
C461        C  0.00394101  0.32181826  0.34143712    -0.16300
C462        C  0.99844956  0.31311417  0.36429436    -0.14300
H463        H  0.99528329  0.28190542  0.40356490     0.21100
H464        H  0.05164633  0.25935522  0.33689563     0.17100
H465        H  0.06090637  0.21962109  0.36351224     0.19600
H466        H  0.98509000  0.32095204  0.37617314     0.13000
C467        C  0.17622183  0.15061741  0.35724998     0.16800
C468        C  0.15223829  0.15833223  0.35537129    -0.32200
C469        C  0.13756444  0.15618015  0.37584468     0.21200
C470        C  0.14626432  0.14661568  0.39723967     0.03400
C471        C  0.17056967  0.13984620  0.39941007    -0.21900
C472        C  0.18533245  0.14224085  0.37896289     0.12600
S473        S  0.19576497  0.14821076  0.33358116    -0.05600
C474        C  0.21651661  0.13584436  0.35309673    -0.09000
C475        C  0.20882792  0.13477453  0.37688627    -0.25700
S476        S  0.12497379  0.14415578  0.41947673    -0.02900
C477        C  0.10438653  0.15701221  0.39999064    -0.16300
C478        C  0.11372515  0.16245892  0.37743133    -0.14300
H479        H  0.14508954  0.16496032  0.33844661     0.21100
H480        H  0.17749415  0.13235047  0.41606461     0.17100
H481        H  0.21907435  0.12671146  0.39141510     0.19600
H482        H  0.10357699  0.17077342  0.36294846     0.13000
C483        C  0.17162810  0.07177509  0.35104009     0.16800
C484        C  0.14713522  0.06635193  0.34897512    -0.32200
C485        C  0.13367066  0.06500499  0.37027538     0.21200
C486        C  0.14394251  0.06900498  0.39271298     0.03400
C487        C  0.16865013  0.07372074  0.39482965    -0.21900
C488        C  0.18220414  0.07483544  0.37348607     0.12600
S489        S  0.19036211  0.07715844  0.32725482    -0.05600
C490        C  0.21261485  0.08384274  0.34776079    -0.09000
C491        C  0.20603851  0.08076814  0.37166721    -0.25700
S492        S  0.12400784  0.06755744  0.41622901    -0.02900
C493        C  0.10188153  0.06071033  0.39554828    -0.16300
C494        C  0.10966843  0.06008606  0.37182224    -0.14300
H495        H  0.13878650  0.06390147  0.33148940     0.21100
H496        H  0.17684166  0.07694052  0.41226205     0.17100
H497        H  0.21757462  0.08463867  0.38691994     0.19600
H498        H  0.09830235  0.05614241  0.35643168     0.13000
C499        C  0.00519324  0.98918990  0.35281101     0.16800
C500        C  0.98805259  0.97574602  0.33990256    -0.32200
C501        C  0.99597542  0.95450575  0.32833593     0.21200
C502        C  0.01971033  0.94685161  0.32981223     0.03400
C503        C  0.03689582  0.96067449  0.34191184    -0.21900
C504        C  0.02908486  0.98190949  0.35321167     0.12600
S505        S  0.99942884  0.01464619  0.36963735    -0.05600
C506        C  0.02970914  0.01560346  0.37643362    -0.09000
C507        C  0.04316706  0.99712017  0.36635756    -0.25700
S508        S  0.02518189  0.91908014  0.31753727    -0.02900
C509        C  0.99511367  0.91749405  0.31051109    -0.16300
C510        C  0.98194980  0.93811741  0.31631385    -0.14300
H511        H  0.96930242  0.98112930  0.33953556     0.21100
H512        H  0.05544817  0.95474147  0.34313581     0.17100
H513        H  0.06232842  0.99459801  0.36903582     0.19600
H514        H  0.96278746  0.94021330  0.31350632     0.13000
C515        C  0.82905653  0.07213292  0.40403561     0.16800
C516        C  0.80779613  0.08574259  0.40129989    -0.32200
C517        C  0.79071450  0.07753974  0.38433261     0.21200
C518        C  0.79454040  0.05670768  0.37090891     0.03400
C519        C  0.81527398  0.04278687  0.37424492    -0.21900
C520        C  0.83239028  0.05111646  0.39081462     0.12600
S521        S  0.85321536  0.07957657  0.42201824    -0.05600
C522        C  0.86771676  0.05399969  0.41142042    -0.09000
C523        C  0.85423588  0.04071418  0.39503864    -0.25700
S524        S  0.77411543  0.05194749  0.34836717    -0.02900
C525        C  0.76072171  0.07887254  0.35622885    -0.16300
C526        C  0.77060105  0.08976924  0.37666327    -0.14300
H527        H  0.80523383  0.10257501  0.41099445     0.21100
H528        H  0.81856346  0.02680124  0.36340670     0.17100
H529        H  0.86027526  0.02429255  0.38621073     0.19600
H530        H  0.76521900  0.10730881  0.38354686     0.13000
C531        C  0.94742519  0.95452370  0.39368786     0.16800
C532        C  0.96201548  0.93501025  0.38653150    -0.32200
C533        C  0.95346477  0.92008141  0.36782072     0.21200
C534        C  0.93111895  0.92396155  0.35730393     0.03400
C535        C  0.91633525  0.94290355  0.36495736    -0.21900
C536        C  0.92517810  0.95821300  0.38297524     0.12600
S537        S  0.95548020  0.97676109  0.41373711    -0.05600
C538        C  0.92872568  0.99120448  0.40707638    -0.09000
C539        C  0.91438721  0.97897549  0.39066706    -0.25700
S540        S  0.92541168  0.90671872  0.33246258    -0.02900
C541        C  0.95389734  0.89499074  0.33532149    -0.16300
C542        C  0.96642009  0.90284544  0.35560616    -0.14300
H543        H  0.97983748  0.93253267  0.39406548     0.21100
H544        H  0.89932854  0.94655327  0.35610079     0.17100
H545        H  0.89725111  0.98543861  0.38388323     0.19600
H546        H  0.98505301  0.89846133  0.35938890     0.13000
C547        C  0.93429800  0.29409229  0.36539457     0.16800
C548        C  0.92552114  0.28139291  0.38543961    -0.32200
C549        C  0.93256130  0.25708327  0.38798145     0.21200
C550        C  0.94760094  0.24600998  0.37133752     0.03400
C551        C  0.95538721  0.25832291  0.35082811    -0.21900
C552        C  0.94827939  0.28246184  0.34821395     0.12600
S553        S  0.93216408  0.32473325  0.36138579    -0.05600
C554        C  0.95106998  0.32165919  0.33696397    -0.09000
C555        C  0.95668052  0.29794569  0.33108967    -0.25700
S556        S  0.95433824  0.21660256  0.37751510    -0.02900
C557        C  0.93601029  0.21880640  0.40233891    -0.16300
C558        C  0.92561821  0.24137954  0.40578849    -0.14300
H559        H  0.91448756  0.29027392  0.39889582     0.21100
H560        H  0.96715324  0.24968740  0.33783622     0.17100
H561        H  0.96929628  0.29274700  0.31712420     0.19600
H562        H  0.91256731  0.24558509  0.41967057     0.13000
C563        C  0.80318882  0.14967595  0.35861785     0.16800
C564        C  0.81701157  0.16456699  0.37362276    -0.32200
C565        C  0.84029283  0.15672614  0.37951688     0.21200
C566        C  0.84955432  0.13508531  0.37081975     0.03400
C567        C  0.83603457  0.12060707  0.35508624    -0.21900
C568        C  0.81270600  0.12844879  0.34922633     0.12600
S569        S  0.77343095  0.15421787  0.35221626    -0.05600
C570        C  0.77366460  0.12691582  0.33730332    -0.09000
C571        C  0.79608067  0.11581928  0.33610790    -0.25700
S572        S  0.87784268  0.12837028  0.38111227    -0.02900
C573        C  0.87715605  0.15515682  0.39698810    -0.16300
C574        C  0.85620831  0.16846613  0.39424181    -0.14300
H575        H  0.80964617  0.18111628  0.38108415     0.21100
H576        H  0.84304884  0.10358023  0.34838558     0.17100
H577        H  0.79941270  0.09825476  0.32808141     0.19600
H578        H  0.85290721  0.18593011  0.40251125     0.13000
C579        C  0.02794703  0.29585332  0.64611471     0.16800
C580        C  0.02428225  0.27730086  0.62917865    -0.32200
C581        C  0.04302207  0.26059964  0.62565710     0.21200
C582        C  0.06492514  0.26325898  0.63738553     0.03400
C583        C  0.06876495  0.28203904  0.65390275    -0.21900
C584        C  0.04953194  0.29773031  0.65859617     0.12600
S585        S  0.00571568  0.31429554  0.65676549    -0.05600
C586        C  0.02485762  0.32236377  0.67996684    -0.09000
C587        C  0.04801495  0.31337349  0.67775975    -0.25700
S588        S  0.08450827  0.24005522  0.63290727    -0.02900
C589        C  0.06265569  0.22578680  0.61598754    -0.16300
C590        C  0.04162693  0.23909242  0.61315613    -0.14300
H591        H  0.00689045  0.27477657  0.62071991     0.21100
H592        H  0.08529795  0.28303947  0.66422273     0.17100
H593        H  0.06191473  0.31544955  0.69131454     0.19600
H594        H  0.02558442  0.23259142  0.60415120     0.13000
C595        C  0.13407947  0.12761965  0.65146978     0.16800
C596        C  0.14697673  0.11162255  0.66620772    -0.32200
C597        C  0.17103739  0.11733408  0.67138527     0.21200
C598        C  0.18205666  0.13767431  0.66190529     0.03400
C599        C  0.16897476  0.15404276  0.64773659    -0.21900
C600        C  0.14477850  0.14857312  0.64292215     0.12600
S601        S  0.10472381  0.12393226  0.64277920    -0.05600
C602        C  0.10677451  0.15126801  0.62810370    -0.09000
C603        C  0.12909182  0.16233310  0.62977779    -0.25700
S604        S  0.21212839  0.13984235  0.66829253    -0.02900
C605        C  0.20983695  0.11288733  0.68367429    -0.16300
C606        C  0.18659659  0.10371852  0.68479313    -0.14300
H607        H  0.13873965  0.09528201  0.67308455     0.21100
H608        H  0.17735189  0.17015120  0.64050329     0.17100
H609        H  0.13352682  0.17967922  0.62187667     0.19600
H610        H  0.18161157  0.08709162  0.69376487     0.13000
C611        C  0.97454620  0.22320025  0.67028587     0.16800
C612        C  0.99300713  0.23827143  0.67870582    -0.32200
C613        C  0.98624458  0.25891823  0.69184267     0.21200
C614        C  0.96228833  0.26425873  0.69640156     0.03400
C615        C  0.94399337  0.24867746  0.68894550    -0.21900
C616        C  0.95068409  0.22820351  0.67571443     0.12600
S617        S  0.97845049  0.19910265  0.65133357    -0.05600
C618        C  0.94759992  0.19588646  0.65087742    -0.09000
C619        C  0.93522733  0.21233892  0.66505828    -0.25700
S620        S  0.95747856  0.29161290  0.70970182    -0.02900
C621        C  0.98806596  0.29620629  0.70891373    -0.16300
C622        C  0.00122968  0.27676498  0.69995620    -0.14300
H623        H  0.01165639  0.23474390  0.67420874     0.21100
H624        H  0.92525369  0.25295928  0.69225778     0.17100
H625        H  0.91580740  0.21359041  0.66633984     0.19600
H626        H  0.02061467  0.27619137  0.69832619     0.13000
C627        C  0.83318436  0.14339147  0.63249658     0.16800
C628        C  0.81247492  0.12965031  0.63693935    -0.32200
C629        C  0.79675257  0.13777251  0.65505325     0.21200
C630        C  0.80099594  0.15906642  0.66763568     0.03400
C631        C  0.82106305  0.17337986  0.66237278    -0.21900
C632        C  0.83725266  0.16474449  0.64497876     0.12600
S633        S  0.85670855  0.13438426  0.61463783    -0.05600
C634        C  0.87240094  0.15932454  0.62463614    -0.09000
C635        C  0.85952759  0.17407141  0.64031831    -0.25700
S636        S  0.78310490  0.16308943  0.69235375    -0.02900
C637        C  0.77083948  0.13512669  0.68654384    -0.16300
C638        C  0.77867025  0.12447066  0.66524873    -0.14300
H639        H  0.80984099  0.11231514  0.62820277     0.21100
H640        H  0.82504579  0.18939876  0.67291477     0.17100
H641        H  0.86672934  0.18996361  0.64920597     0.19600
H642        H  0.77401965  0.10628119  0.65964150     0.13000
C643        C  0.96830807  0.92622970  0.67891109     0.16800
C644        C  0.96867832  0.95145873  0.67749212    -0.32200
C645        C  0.95887635  0.96208896  0.65682286     0.21200
C646        C  0.94929119  0.94830849  0.63822514     0.03400
C647        C  0.94871989  0.92303426  0.63975738    -0.21900
C648        C  0.95826519  0.91238276  0.66059744     0.12600
S649        S  0.98136443  0.90992968  0.70142039    -0.05600
C650        C  0.97362935  0.88424415  0.68572484    -0.09000
C651        C  0.96063159  0.88812475  0.66481590    -0.25700
S652        S  0.93801967  0.96484931  0.61478016    -0.02900
C653        C  0.94614439  0.99040205  0.63045820    -0.16300
C654        C  0.95697852  0.98629909  0.65249225    -0.14300
H655        H  0.97653848  0.96231804  0.69172810     0.21100
H656        H  0.94134533  0.91215183  0.62528621     0.17100
H657        H  0.95549608  0.87406921  0.65220021     0.19600
H658        H  0.96251478  0.00034796  0.66495221     0.13000
C659        C  0.82266383  0.06625281  0.68681440     0.16800
C660        C  0.83743016  0.04972737  0.67472485    -0.32200
C661        C  0.85910456  0.05836706  0.66519906     0.21200
C662        C  0.86587975  0.08241253  0.66736318     0.03400
C663        C  0.85148625  0.09878756  0.68028957    -0.21900
C664        C  0.82984146  0.09004367  0.69004428     0.12600
S665        S  0.79450233  0.05994119  0.69734022    -0.05600
C666        C  0.79214020  0.08977290  0.70596088    -0.09000
C667        C  0.81283749  0.10331965  0.70204655    -0.25700
S668        S  0.89226456  0.08936601  0.65292726    -0.02900
C669        C  0.89434052  0.05935981  0.64465628    -0.16300
C670        C  0.87547986  0.04507321  0.65252821    -0.14300
H671        H  0.83197224  0.03107762  0.67227127     0.21100
H672        H  0.85657464  0.11761587  0.68210227     0.17100
H673        H  0.81480693  0.12228992  0.70643748     0.19600
H674        H  0.87371851  0.02588554  0.64889692     0.13000
C675        C  0.15122856  0.05520293  0.62567967     0.16800
C676        C  0.17425178  0.06549644  0.62638932    -0.32200
C677        C  0.18995650  0.05776270  0.64469654     0.21200
C678        C  0.18330245  0.04012004  0.66115637     0.03400
C679        C  0.16080892  0.02894396  0.65962455    -0.21900
C680        C  0.14487062  0.03725719  0.64188237     0.12600
S681        S  0.12834278  0.06414598  0.60695276    -0.05600
C682        C  0.11012773  0.04337631  0.62114906    -0.09000
C683        C  0.12146071  0.03035568  0.63928608    -0.25700
S684        S  0.20237733  0.03709726  0.68510463    -0.02900
C685        C  0.21867795  0.06082889  0.67359542    -0.16300
C686        C  0.21100321  0.06882926  0.65112620    -0.14300
H687        H  0.17906879  0.08013456  0.61437377     0.21100
H688        H  0.15525463  0.01569574  0.67286381     0.17100
H689        H  0.11289863  0.01668490  0.65030519     0.19600
H690        H  0.21835363  0.08440249  0.64187827     0.13000
C691        C  0.04113435  0.91296439  0.66213853     0.16800
C692        C  0.05249616  0.93554327  0.66238566    -0.32200
C693        C  0.04500801  0.95278519  0.64541908     0.21200
C694        C  0.02711431  0.94789141  0.62871048     0.03400
C695        C  0.01622537  0.92494365  0.62795971    -0.21900
C696        C  0.02373616  0.90763123  0.64504428     0.12600
S697        S  0.04496845  0.89118896  0.68368103    -0.05600
C698        C  0.02238158  0.87486906  0.67007673    -0.09000
C699        C  0.01379247  0.88523352  0.64883682    -0.25700
S700        S  0.02054829  0.97178174  0.60999575    -0.02900
C701        C  0.04268820  0.98817857  0.62448313    -0.16300
C702        C  0.05389427  0.97570847  0.64312294    -0.14300
H703        H  0.06604191  0.93979880  0.67578239     0.21100
H704        H  0.00205759  0.92099160  0.61513071     0.17100
H705        H  0.99921581  0.87791628  0.63815061     0.19600
H706        H  0.06841803  0.98282597  0.65406897     0.13000
C707        C  0.35582967  0.15897219  0.22068603     0.16800
C708        C  0.35922395  0.17289160  0.19989306    -0.32200
C709        C  0.37536507  0.16414807  0.18247494     0.21200
C710        C  0.38817184  0.14287041  0.18575323     0.03400
C711        C  0.38565697  0.12954115  0.20712862    -0.21900
C712        C  0.36904885  0.13798532  0.22435148     0.12600
S713        S  0.33299353  0.16335729  0.24093066    -0.05600
C714        C  0.34052047  0.13602661  0.25375907    -0.09000
C715        C  0.36109933  0.12540035  0.24406512    -0.25700
S716        S  0.40422894  0.13376865  0.16088632    -0.02900
C717        C  0.39333767  0.15883398  0.14590423    -0.16300
C718        C  0.37856473  0.17351386  0.15992840    -0.14300
H719        H  0.34836116  0.18883920  0.19655380     0.21100
H720        H  0.39484021  0.11239484  0.20943551     0.17100
H721        H  0.36767986  0.10760856  0.24897509     0.19600
H722        H  0.36930676  0.18952055  0.15347249     0.13000
C723        C  0.33134833  0.22179872  0.05914315     0.16800
C724        C  0.31029892  0.22991070  0.04802082    -0.32200
C725        C  0.30212301  0.25310092  0.05396851     0.21200
C726        C  0.31448527  0.26786754  0.06995361     0.03400
C727        C  0.33498123  0.25932454  0.08198946    -0.21900
C728        C  0.34304111  0.23594171  0.07618571     0.12600
S729        S  0.34444909  0.19439264  0.05375982    -0.05600
C730        C  0.36535316  0.20161533  0.07538217    -0.09000
C731        C  0.36247187  0.22424616  0.08584795    -0.25700
S732        S  0.30401007  0.29693910  0.07114728    -0.02900
C733        C  0.28333506  0.28904464  0.04939249    -0.16300
C734        C  0.28336491  0.26475492  0.04325959    -0.14300
H735        H  0.30111346  0.21893367  0.03470142     0.21100
H736        H  0.34466816  0.27065061  0.09464255     0.17100
H737        H  0.37364517  0.23142624  0.10018232     0.19600
H738        H  0.27198642  0.25669943  0.02958632     0.13000
C739        C  0.35139534  0.07717083  0.16083262     0.16800
C740        C  0.33921985  0.09398400  0.17544615    -0.32200
C741        C  0.33233335  0.08642859  0.19866297     0.21200
C742        C  0.33732801  0.06329923  0.20692271     0.03400
C743        C  0.34856551  0.04630976  0.19204219    -0.21900
C744        C  0.35553577  0.05383371  0.16900638     0.12600
S745        S  0.36277357  0.08275555  0.13260462    -0.05600
C746        C  0.37269699  0.05317204  0.13189422    -0.09000
C747        C  0.36746388  0.04003770  0.15249121    -0.25700
S748        S  0.33049717  0.05850512  0.23650647    -0.02900
C749        C  0.32134743  0.08819482  0.23817109    -0.16300
C750        C  0.32205249  0.10045466  0.21624580    -0.14300
H751        H  0.33603559  0.11233185  0.16936129     0.21100
H752        H  0.35252593  0.02823143  0.19846406     0.17100
H753        H  0.37227587  0.02123602  0.15529876     0.19600
H754        H  0.31682773  0.11914715  0.21367984     0.13000
C755        C  0.36262877  0.94199473  0.09205729     0.16800
C756        C  0.34614840  0.92366890  0.09754374    -0.32200
C757        C  0.34077654  0.90678938  0.07952386     0.21200
C758        C  0.35265409  0.90709231  0.05754685     0.03400
C759        C  0.36934858  0.92546669  0.05207434    -0.21900
C760        C  0.37350278  0.94342640  0.06961256     0.12600
S761        S  0.36817949  0.96590426  0.11038517    -0.05600
C762        C  0.38422528  0.97919240  0.08729029    -0.09000
C763        C  0.38605050  0.96487759  0.06668914    -0.25700
S764        S  0.34165954  0.88667354  0.03720138    -0.02900
C765        C  0.31890450  0.88000503  0.05743735    -0.16300
C766        C  0.32164395  0.89103511  0.07970785    -0.14300
H767        H  0.33648376  0.92374662  0.11449338     0.21100
H768        H  0.37725949  0.92674930  0.03429229     0.17100
H769        H  0.39447877  0.97052317  0.05003558     0.19600
H770        H  0.30846599  0.89016308  0.09405671     0.13000
C771        C  0.34227168  0.05444457  0.87319556     0.16800
C772        C  0.32359329  0.06066490  0.85755279    -0.32200
C773        C  0.32746955  0.05759766  0.83289142     0.21200
C774        C  0.34896438  0.04847948  0.82397644     0.03400
C775        C  0.36777753  0.04200993  0.83977227    -0.21900
C776        C  0.36396793  0.04539654  0.86466209     0.12600
S777        S  0.34039423  0.05679418  0.90362467    -0.05600
C778        C  0.36922276  0.04569262  0.90531766    -0.09000
C779        C  0.37975321  0.04032871  0.88322124    -0.25700
S780        S  0.35058965  0.04853046  0.79311321    -0.02900
C781        C  0.32258839  0.06211058  0.79263271    -0.16300
C782        C  0.31215187  0.06492855  0.81507824    -0.14300
H783        H  0.30685624  0.06808718  0.86433018     0.21100
H784        H  0.38475849  0.03523702  0.83295639     0.17100
H785        H  0.39737813  0.03225086  0.88095821     0.19600
H786        H  0.29527062  0.07423550  0.81827781     0.13000
C787        C  0.30766028  0.93341003  0.99313780     0.16800
C788        C  0.31817104  0.94687941  0.97467282    -0.32200
C789        C  0.33103058  0.96762246  0.98120982     0.21200
C790        C  0.33344234  0.97481889  0.00504761     0.03400
C791        C  0.32217969  0.96175471  0.02353117    -0.21900
C792        C  0.30921897  0.94094163  0.01694871     0.12600
S793        S  0.29387185  0.90616915  0.98907032    -0.05600
C794        C  0.29046250  0.90459994  0.01982374    -0.09000
C795        C  0.29849688  0.92487427  0.03229532    -0.25700
S796        S  0.35150332  0.99962875  0.00903998    -0.02900
C797        C  0.35527262  0.00039385  0.97819156    -0.16300
C798        C  0.34320530  0.98234589  0.96579893    -0.14300
H799        H  0.31708320  0.94099543  0.95606769     0.21100
H800        H  0.32411124  0.96706762  0.04223644     0.17100
H801        H  0.29802809  0.92694362  0.05169159     0.19600
H802        H  0.34375137  0.97978517  0.94643735     0.13000
C803        C  0.34299435  0.23190858  0.98535614     0.16800
C804        C  0.33943770  0.25480586  0.99551359    -0.32200
C805        C  0.31739055  0.26628299  0.99099963     0.21200
C806        C  0.29959136  0.25545248  0.97715497     0.03400
C807        C  0.30341156  0.23286902  0.96646797    -0.21900
C808        C  0.32544577  0.22142958  0.97094680     0.12600
S809        S  0.36836165  0.21479985  0.98880918    -0.05600
C810        C  0.35539651  0.19377375  0.96994369    -0.09000
C811        C  0.33247280  0.19954443  0.96205518    -0.25700
S812        S  0.27282960  0.27060101  0.97682045    -0.02900
C813        C  0.28554579  0.29122422  0.99622337    -0.16300
C814        C  0.30971119  0.28739484  0.00118944    -0.14300
H815        H  0.35296266  0.26302137  0.00695628     0.21100
H816        H  0.28956308  0.22426485  0.95571929     0.17100
H817        H  0.32179929  0.18861136  0.94985521     0.19600
H818        H  0.32020755  0.29798458  0.01383147     0.13000
C819        C  0.36677821  0.12476919  0.86254974     0.16800
C820        C  0.36881451  0.11504503  0.83930566    -0.32200
C821        C  0.35001373  0.11970212  0.82302398     0.21200
C822        C  0.33009631  0.13336216  0.82952931     0.03400
C823        C  0.32840621  0.14364852  0.85248801    -0.21900
C824        C  0.34708142  0.13888153  0.86877232     0.12600
S825        S  0.38718144  0.12076373  0.88533183    -0.05600
C826        C  0.36914540  0.13879142  0.90314137    -0.09000
C827        C  0.34830696  0.14688224  0.89198311    -0.25700
S828        S  0.30763504  0.13389593  0.80854357    -0.02900
C829        C  0.32488001  0.11480492  0.79115867    -0.16300
C830        C  0.34755078  0.10993811  0.80052176    -0.14300
H831        H  0.38395598  0.10371014  0.83437507     0.21100
H832        H  0.31280370  0.15418376  0.85773046     0.17100
H833        H  0.33487713  0.15841702  0.90029836     0.19600
H834        H  0.36067686  0.09811157  0.79223268     0.13000
C835        C  0.62670627  0.24411424  0.04298087     0.16800
C836        C  0.64257242  0.25898273  0.03030273    -0.32200
C837        C  0.64665062  0.28223941  0.03944794     0.21200
C838        C  0.63537463  0.29048549  0.06020607     0.03400
C839        C  0.62024613  0.27525634  0.07343317    -0.21900
C840        C  0.61618921  0.25195950  0.06428527     0.12600
S841        S  0.61906368  0.21542380  0.03461304    -0.05600
C842        C  0.60213416  0.21379421  0.06045439    -0.09000
C843        C  0.60224683  0.23445607  0.07455527    -0.25700
S844        S  0.63973283  0.32050871  0.06611530    -0.02900
C845        C  0.65645037  0.32189679  0.04007607    -0.16300
C846        C  0.65958693  0.29996452  0.02837958    -0.14300
H847        H  0.65082174  0.25295864  0.01365463     0.21100
H848        H  0.61142972  0.28152157  0.08969506     0.17100
H849        H  0.59334271  0.23618170  0.09183822     0.19600
H850        H  0.66874036  0.29773656  0.01128812     0.13000
C851        C  0.64794502  0.14518639  0.19419746     0.16800
C852        C  0.63495803  0.16090892  0.17923358    -0.32200
C853        C  0.62863577  0.15247418  0.15621537     0.21200
C854        C  0.63503958  0.12950733  0.14834342     0.03400
C855        C  0.64906476  0.11429424  0.16285368    -0.21900
C856        C  0.65531379  0.12269862  0.18588628     0.12600
S857        S  0.65417370  0.15036011  0.22394751    -0.05600
C858        C  0.66634230  0.12169664  0.22528551    -0.09000
C859        C  0.66695330  0.10968990  0.20329023    -0.25700
S860        S  0.62387572  0.12193107  0.12060658    -0.02900
C861        C  0.61094649  0.15021039  0.11944432    -0.16300
C862        C  0.61517985  0.16460991  0.13946761    -0.14300
H863        H  0.62914228  0.17850785  0.18560468     0.21100
H864        H  0.65400718  0.09629073  0.15687382     0.17100
H865        H  0.67391898  0.09159204  0.20058614     0.19600
H866        H  0.60852667  0.18291884  0.14169877     0.13000
C867        C  0.59056423  0.26607873  0.98236479     0.16800
C868        C  0.59284057  0.28685140  0.99695366    -0.32200
C869        C  0.60967727  0.30460843  0.98994408     0.21200
C870        C  0.62333568  0.30195209  0.96922196     0.03400
C871        C  0.62057754  0.28162564  0.95439321    -0.21900
C872        C  0.60417718  0.26377048  0.96159652     0.12600
S873        S  0.57324392  0.24102868  0.98867656    -0.05600
C874        C  0.58495077  0.22725548  0.96326291    -0.09000
C875        C  0.60086248  0.24188822  0.95057199    -0.17900
S876        S  0.64524953  0.32335075  0.96561311    -0.02900
C877        C  0.63683295  0.33561705  0.99285523    -0.16300
C878        C  0.61677858  0.32446365  0.00313647    -0.14300
H879        H  0.58291656  0.28849956  0.01366600     0.21100
H880        H  0.63173835  0.27917118  0.93857810     0.17100
H881        H  0.61047905  0.23640700  0.93447932     0.19600
H882        H  0.60953374  0.32900231  0.02068112     0.13000
C883        C  0.63340482  0.16284255  0.87501756     0.16800
C884        C  0.65128977  0.16593107  0.85753201    -0.32200
C885        C  0.65002908  0.15155645  0.83677871     0.21200
C886        C  0.63159241  0.13497451  0.83344236     0.03400
C887        C  0.61345424  0.13215017  0.85083831    -0.21900
C888        C  0.61493788  0.14628141  0.87185304     0.12600
S889        S  0.63208801  0.17849623  0.90137777    -0.05600
C890        C  0.60627419  0.16270338  0.90846558    -0.09000
C891        C  0.59935151  0.14591749  0.89117487    -0.25700
S892        S  0.63532571  0.11666309  0.80890342    -0.02900
C893        C  0.66269781  0.13056330  0.80407037    -0.16300
C894        C  0.66752678  0.14966155  0.81947627    -0.14300
H895        H  0.66601564  0.17843988  0.86036272     0.21100
H896        H  0.59937869  0.11882003  0.84854286     0.17100
H897        H  0.58332736  0.13485452  0.89220297     0.19600
H898        H  0.68450325  0.15925543  0.82008722     0.13000
C899        C  0.61997263  0.89953603  0.95330199     0.16800
C900        C  0.61402356  0.91896638  0.93826138    -0.32200
C901        C  0.59903198  0.93705198  0.94773582     0.21200
C902        C  0.58892990  0.93507976  0.97049553     0.03400
C903        C  0.59356491  0.91478259  0.98491065    -0.21900
C904        C  0.60986789  0.89748730  0.97607912     0.12600
S905        S  0.64371258  0.88055875  0.94821186    -0.05600
C906        C  0.64112969  0.87109447  0.97760222    -0.09000
C907        C  0.62124903  0.88028236  0.98970529    -0.25700
S908        S  0.57469432  0.96075747  0.98028286    -0.02900
C909        C  0.58316025  0.97452033  0.95376967    -0.16300
C910        C  0.59553629  0.95951272  0.93797561    -0.14300
H911        H  0.62292516  0.92132959  0.92106412     0.21100
H912        H  0.58695823  0.91390318  0.00325159     0.17100
H913        H  0.61765970  0.87733259  0.00866711     0.19600
H914        H  0.60325571  0.96532167  0.92102084     0.13000
C915        C  0.64117826  0.07153737  0.89157725     0.16800
C916        C  0.65554163  0.08865689  0.87971110    -0.32200
C917        C  0.66646089  0.08160038  0.85794503     0.21200
C918        C  0.66305749  0.05871908  0.84829983     0.03400
C919        C  0.64966410  0.04132013  0.86069148    -0.21900
C920        C  0.63886639  0.04828121  0.88245565     0.12600
S921        S  0.62452827  0.07685223  0.91705350    -0.05600
C922        C  0.61496676  0.04719440  0.91564384    -0.09000
C923        C  0.62425259  0.03419147  0.89637347    -0.25700
S924        S  0.67459335  0.05490898  0.82001232    -0.02900
C925        C  0.68379177  0.08460522  0.82093472    -0.16300
C926        C  0.67950959  0.09607854  0.84284855    -0.14300
H927        H  0.65733978  0.10692160  0.88659351     0.21100
H928        H  0.64695254  0.02341434  0.85321443     0.17100
H929        H  0.61992794  0.01551448  0.89231426     0.19600
H930        H  0.68437704  0.11452729  0.84701905     0.13000
C931        C  0.60245364  0.06237958  0.17194838     0.16800
C932        C  0.60422390  0.07580976  0.19336216    -0.32200
C933        C  0.62183743  0.06881570  0.21019221     0.21200
C934        C  0.63675574  0.04908318  0.20611843     0.03400
C935        C  0.63436080  0.03513228  0.18514426    -0.21900
C936        C  0.61716575  0.04247132  0.16809047     0.12600
S937        S  0.58437002  0.06957320  0.14793982    -0.05600
C938        C  0.59692641  0.04556970  0.13249343    -0.09000
C939        C  0.61395487  0.03269783  0.14563847    -0.25700
S940        S  0.65984719  0.04626154  0.22635402    -0.02900
C941        C  0.65004431  0.07261808  0.23973595    -0.16300
C942        C  0.62879157  0.08178822  0.23008210    -0.14300
H943        H  0.59341818  0.09190988  0.19610232     0.21100
H944        H  0.64645636  0.02017090  0.18152864     0.17100
H945        H  0.62416936  0.01745117  0.13880059     0.19600
H946        H  0.62077571  0.09888158  0.23533979     0.13000
C947        C  0.65307676  0.92525325  0.04734518     0.16800
C948        C  0.64502388  0.94079350  0.06551510    -0.32200
C949        C  0.63538005  0.96307917  0.05844137     0.21200
C950        C  0.63421171  0.96990202  0.03440360     0.03400
C951        C  0.64332804  0.95477761  0.01628080    -0.21900
C952        C  0.65253567  0.93222697  0.02334289     0.12600
S953        S  0.66224435  0.89623672  0.05202239    -0.05600
C954        C  0.66479298  0.89315155  0.02124344    -0.09000
C955        C  0.66008843  0.91411988  0.00831877    -0.25700
S956        S  0.61947811  0.99662089  0.02950712    -0.02900
C957        C  0.61524458  0.99862940  0.06021251    -0.16300
C958        C  0.62482929  0.97963508  0.07333032    -0.14300
H959        H  0.64515160  0.93526896  0.08424506     0.21100
H960        H  0.64213992  0.95980155  0.99744691     0.17100
H961        H  0.66119686  0.91576120  0.98891208     0.19600
H962        H  0.62328136  0.97755854  0.09268735     0.13000
C963        C  0.01394552  0.43930945  0.18930932     0.16800
C964        C  0.01529097  0.43911104  0.16406184    -0.32200
C965        C  0.01827383  0.46137392  0.15228682     0.21200
C966        C  0.01997102  0.48288887  0.16503982     0.03400
C967        C  0.01927599  0.48300072  0.19034506    -0.21900
C968        C  0.01627125  0.46072737  0.20214489     0.12600
S969        S  0.00699061  0.41478396  0.20663608    -0.05600
C970        C  0.00670689  0.43362715  0.23139323    -0.09000
C971        C  0.01300080  0.45739044  0.22645367    -0.25700
S972        S  0.02387683  0.50790580  0.14730163    -0.02900
C973        C  0.02348025  0.48916827  0.12246100    -0.16300
C974        C  0.02046833  0.46485509  0.12790728    -0.14300
H975        H  0.01347720  0.42240388  0.15399648     0.21100
H976        H  0.02054456  0.49977067  0.20038367     0.17100
H977        H  0.01253389  0.47193202  0.23955268     0.19600
H978        H  0.02114520  0.45035491  0.11475951     0.13000
C979        C  0.15778602  0.43671258  0.07145437     0.16800
C980        C  0.13681191  0.44288054  0.08377663    -0.32200
C981        C  0.12299716  0.46185846  0.07447748     0.21200
C982        C  0.13011375  0.47504872  0.05449750     0.03400
C983        C  0.15192864  0.46979188  0.04296277    -0.21900
C984        C  0.16533794  0.45008388  0.05170742     0.12600
S985        S  0.17284798  0.41017866  0.07571620    -0.05600
C986        C  0.18839465  0.41638691  0.04974534    -0.09000
C987        C  0.18398927  0.43910576  0.04000519    -0.25700
S988        S  0.10919603  0.49569453  0.04475519    -0.02900
C989        C  0.09079384  0.48613422  0.06784753    -0.16300
C990        C  0.10068000  0.46820325  0.08221855    -0.14300
H991        H  0.13039440  0.43197508  0.09864746     0.21100
H992        H  0.15717394  0.47925349  0.02671409     0.17100
H993        H  0.19133311  0.44543652  0.02307263     0.19600
H994        H  0.09171925  0.45968438  0.09731786     0.13000
C995        C  0.10515384  0.44949990  0.98727876     0.16800
C996        C  0.11552199  0.43271055  0.00308711    -0.32200
C997        C  0.13807235  0.42314694  0.99677288     0.21200
C998        C  0.15002614  0.43034708  0.97605844     0.03400
C999        C  0.13949026  0.44670738  0.96010878    -0.21900
C1000       C  0.11684199  0.45588676  0.96614580     0.12600
S1001       S  0.07787176  0.46335392  0.99126447    -0.05600
C1002       C  0.08220053  0.47708095  0.96376825    -0.09000
C1003       C  0.10371772  0.47154196  0.95258380    -0.25700
S1004       S  0.17822661  0.41864052  0.97278649    -0.02900
C1005       C  0.17406905  0.40416829  0.99981717    -0.16300
C1006       C  0.15146461  0.40729948  0.01002457    -0.14300
H1007       H  0.10658071  0.42752975  0.01963162     0.21100
H1008       H  0.14865163  0.45225180  0.94380534     0.17100
H1009       H  0.10936884  0.47846848  0.93522591     0.19600
H1010       H  0.14584371  0.39977190  0.02712556     0.13000
C1011       C  0.04737264  0.46178519  0.81796884     0.16800
C1012       C  0.06202413  0.46936157  0.83698906    -0.32200
C1013       C  0.05213521  0.48567954  0.85353397     0.21200
C1014       C  0.02922528  0.49526206  0.85053567     0.03400
C1015       C  0.01501107  0.48862981  0.83079058    -0.21900
C1016       C  0.02439281  0.47123073  0.81497291     0.12600
S1017       S  0.05352638  0.43717883  0.80052495    -0.05600
C1018       C  0.02438634  0.43863274  0.79032390    -0.09000
C1019       C  0.01139632  0.45852024  0.79833307    -0.25700
S1020       S  0.01894294  0.51142526  0.87461880    -0.02900
C1021       C  0.04529156  0.50410090  0.88923138    -0.16300
C1022       C  0.06159916  0.49103607  0.87557953    -0.14300
H1023       H  0.07934886  0.46093270  0.84021185     0.21100
H1024       H  0.99655302  0.49479328  0.82926335     0.17100
H1025       H  0.99241912  0.46140927  0.79486571     0.19600
H1026       H  0.07846792  0.48379560  0.88226655     0.13000
C1027       C  0.81875692  0.47424623  0.95277657     0.16800
C1028       C  0.79839176  0.45952517  0.95052411    -0.32200
C1029       C  0.77948873  0.46312845  0.96678045     0.21200
C1030       C  0.78041349  0.48130636  0.98402318     0.03400
C1031       C  0.80074056  0.49645117  0.98599603    -0.21900
C1032       C  0.82015740  0.49218348  0.97022231     0.12600
S1033       S  0.84416507  0.47066653  0.93616741    -0.05600
C1034       C  0.85744940  0.49340361  0.95284793    -0.09000
C1035       C  0.84247599  0.50331783  0.97043301    -0.25700
S1036       S  0.75729769  0.48020219  0.00432865    -0.02900
C1037       C  0.74763557  0.45370568  0.99066533    -0.16300
C1038       C  0.76038659  0.44771752  0.97006941    -0.14300
H1039       H  0.79794322  0.44485899  0.93755593     0.21100
H1040       H  0.80196908  0.50990659  0.00015175     0.17100
H1041       H  0.84774276  0.51740981  0.98294149     0.19600
H1042       H  0.75804078  0.43096259  0.96018867     0.13000
C1043       C  0.93609044  0.45837901  0.86761100     0.16800
C1044       C  0.93640463  0.44724130  0.84491412    -0.32200
C1045       C  0.95732598  0.43481783  0.83815797     0.21200
C1046       C  0.97707265  0.43332797  0.85341323     0.03400
C1047       C  0.97683669  0.44467322  0.87613025    -0.21900
C1048       C  0.95592395  0.45739332  0.88280210     0.12600
S1049       S  0.91209401  0.47371297  0.87911509    -0.05600
C1050       C  0.92889094  0.47928069  0.90465540    -0.09000
C1051       C  0.95201095  0.46970126  0.90408308    -0.25700
S1052       S  0.00097529  0.41795939  0.84139884    -0.02900
C1053       C  0.98442162  0.41443650  0.81523858    -0.16300
C1054       C  0.96135298  0.42381348  0.81635406    -0.14300
H1055       H  0.92101807  0.44834112  0.83295670     0.21100
H1056       H  0.99234222  0.44384132  0.88794724     0.17100
H1057       H  0.96489311  0.47099026  0.91868981     0.19600
H1058       H  0.94870461  0.42377548  0.80148188     0.13000
C1059       C  0.93751578  0.44821342  0.19722856     0.16800
C1060       C  0.92750494  0.44799806  0.17413070    -0.32200
C1061       C  0.93069417  0.46858326  0.15982500     0.21200
C1062       C  0.94328324  0.48863496  0.16795206     0.03400
C1063       C  0.95278796  0.48911699  0.19140585    -0.21900
C1064       C  0.94951507  0.46845233  0.20580435     0.12600
S1065       S  0.93818944  0.42383943  0.21606152    -0.05600
C1066       C  0.95527037  0.44085431  0.23553766    -0.09000
C1067       C  0.95892898  0.46459667  0.22828715    -0.25700
S1068       S  0.94599552  0.51124803  0.14696233    -0.02900
C1069       C  0.92947358  0.49354547  0.12741548    -0.16300
C1070       C  0.92266346  0.47136196  0.13678291    -0.14300
H1071       H  0.91824626  0.43216956  0.16730882     0.21100
H1072       H  0.96286237  0.50457325  0.19789253     0.17100
H1073       H  0.96956666  0.47771235  0.23809922     0.19600
H1074       H  0.91243052  0.45777964  0.12711456     0.13000
C1075       C  0.84405871  0.46148062  0.03967766     0.16800
C1076       C  0.82834371  0.44848204  0.02476435    -0.32200
C1077       C  0.80550405  0.44295825  0.03401758     0.21200
C1078       C  0.79849870  0.45015673  0.05692459     0.03400
C1079       C  0.81443452  0.46243221  0.07205796    -0.21900
C1080       C  0.83723352  0.46785637  0.06288931     0.12600
S1081       S  0.87225797  0.47105444  0.03175098    -0.05600
C1082       C  0.87482696  0.48306795  0.06028526    -0.09000
C1083       C  0.85489161  0.47999781  0.07481895    -0.25700
S1084       S  0.76916807  0.44421003  0.06376986    -0.02900
C1085       C  0.76618129  0.43229677  0.03529612    -0.16300
C1086       C  0.78724698  0.43180643  0.02188600    -0.14300
H1087       H  0.83341488  0.44347522  0.00657545     0.21100
H1088       H  0.80909303  0.46808628  0.08997851     0.17100
H1089       H  0.85340287  0.48645922  0.09321173     0.19600
H1090       H  0.78874265  0.42492875  0.00368075     0.13000
C1091       C  0.01687034  0.78517155  0.16942701     0.16800
C1092       C  0.03404292  0.77291836  0.15574649    -0.32200
C1093       C  0.02588698  0.75934729  0.13610009     0.21200
C1094       C  0.00177604  0.75822547  0.12980080     0.03400
C1095       C  0.98454016  0.77115564  0.14314980    -0.21900
C1096       C  0.99271199  0.78450888  0.16317549     0.12600
S1097       S  0.02297423  0.79953676  0.19591456    -0.05600
C1098       C  0.99254531  0.80383268  0.19935762    -0.09000
C1099       C  0.97872250  0.79616792  0.17986520    -0.25700
S1100       S  0.99590975  0.73935785  0.10585901    -0.02900
C1101       C  0.02633026  0.73316119  0.10458080    -0.16300
C1102       C  0.03990426  0.74520475  0.12177882    -0.14300
H1103       H  0.05287197  0.77305858  0.16083520     0.21100
H1104       H  0.96556905  0.77001491  0.13879797     0.17100
H1105       H  0.95930481  0.79730227  0.17888179     0.19600
H1106       H  0.05919677  0.74339726  0.12404763     0.13000
C1107       C  0.14121535  0.71107519  0.05865423     0.16800
C1108       C  0.16266413  0.71689021  0.04669240    -0.32200
C1109       C  0.17801192  0.73381271  0.05774293     0.21200
C1110       C  0.17277949  0.74363867  0.08016716     0.03400
C1111       C  0.15206560  0.73681699  0.09265048    -0.21900
C1112       C  0.13619675  0.72093739  0.08108770     0.12600
S1113       S  0.11771968  0.69539291  0.04611779    -0.05600
C1114       C  0.10081825  0.70314655  0.07097836    -0.09000
C1115       C  0.11328320  0.71613523  0.08835522    -0.25700
S1116       S  0.19012032  0.76782982  0.08804076    -0.02900
C1117       C  0.20354611  0.76577968  0.06025155    -0.16300
C1118       C  0.19649040  0.74582300  0.04668876    -0.14300
H1119       H  0.16602704  0.71046404  0.02854871     0.21100
H1120       H  0.14726917  0.74547429  0.10951412     0.17100
H1121       H  0.10533971  0.72353596  0.10461379     0.19600
H1122       H  0.20188727  0.74263240  0.02819888     0.13000
C1123       C  0.92854683  0.75417946  0.19883013     0.16800
C1124       C  0.91298231  0.74558234  0.18096355    -0.32200
C1125       C  0.92207629  0.72852160  0.16463854     0.21200
C1126       C  0.94515136  0.71917438  0.16678244     0.03400
C1127       C  0.96028870  0.72672403  0.18560854    -0.21900
C1128       C  0.95165886  0.74489769  0.20114171     0.12600
S1129       S  0.92312502  0.77956358  0.21554995    -0.05600
C1130       C  0.95264612  0.77853104  0.22475909    -0.09000
C1131       C  0.96532837  0.75834092  0.21678308    -0.25700
S1132       S  0.95410705  0.70198314  0.14265131    -0.02900
C1133       C  0.92687083  0.70847404  0.12919983    -0.16300
C1134       C  0.91141752  0.72209205  0.14339935    -0.14300
H1135       H  0.89544139  0.75374552  0.17829341     0.21100
H1136       H  0.97879345  0.72060316  0.18655270     0.17100
H1137       H  0.98442825  0.75557959  0.21961890     0.19600
H1138       H  0.89407056  0.72888295  0.13752900     0.13000
C1139       C  0.81246001  0.77606053  0.04640935     0.16800
C1140       C  0.82814555  0.76735046  0.06415653    -0.32200
C1141       C  0.84953608  0.75630984  0.05644562     0.21200
C1142       C  0.85539515  0.75448816  0.03221127     0.03400
C1143       C  0.84020371  0.76423079  0.01451988    -0.21900
C1144       C  0.81856410  0.77482764  0.02221435     0.12600
S1145       S  0.78402040  0.78645005  0.05178100    -0.05600
C1146       C  0.77996346  0.78830413  0.02104998    -0.09000
C1147       C  0.80037415  0.78287127  0.00765519    -0.25700
S1148       S  0.88086959  0.73800821  0.02652359    -0.02900
C1149       C  0.88360950  0.73357783  0.05714256    -0.16300
C1150       C  0.86583959  0.74468904  0.07082067    -0.14300
H1151       H  0.82327541  0.76790780  0.08305295     0.21100
H1152       H  0.84439077  0.76239563  0.99553584     0.17100
H1153       H  0.80142424  0.78336334  0.98819875     0.19600
H1154       H  0.86427674  0.74336415  0.09024297     0.13000
C1155       C  0.96196789  0.74385085  0.87270214     0.16800
C1156       C  0.97992104  0.75605267  0.85987716    -0.32200
C1157       C  0.97389190  0.76500685  0.83699121     0.21200
C1158       C  0.95120318  0.76169068  0.82715298     0.03400
C1159       C  0.93301967  0.75031052  0.84031093    -0.21900
C1160       C  0.93895262  0.74157799  0.86325294     0.12600
S1161       S  0.96576692  0.73069222  0.90033122    -0.05600
C1162       C  0.93580626  0.72291069  0.89938726    -0.09000
C1163       C  0.92380899  0.72983018  0.87860821    -0.25700
S1164       S  0.94835231  0.77138138  0.79811138    -0.02900
C1165       C  0.97819801  0.77965039  0.79901688    -0.16300
C1166       C  0.98906721  0.77641125  0.82134844    -0.14300
H1167       H  0.99792043  0.75798213  0.86714542     0.21100
H1168       H  0.91518943  0.74787051  0.83278875     0.17100
H1169       H  0.90498512  0.72631926  0.87489648     0.19600
H1170       H  0.00734671  0.78132524  0.82574675     0.13000
C1171       C  0.78771313  0.72974152  0.97641243     0.16800
C1172       C  0.80773896  0.71462192  0.97982597    -0.32200
C1173       C  0.82571417  0.71495004  0.96210269     0.21200
C1174       C  0.82313358  0.72872758  0.94136331     0.03400
C1175       C  0.80284015  0.74319453  0.93759738    -0.21900
C1176       C  0.78560098  0.74395563  0.95588412     0.12600
S1177       S  0.76730977  0.73641399  0.99834209    -0.05600
C1178       C  0.75787807  0.76033966  0.98070338    -0.09000
C1179       C  0.76793177  0.76108887  0.95796511    -0.25700
S1180       S  0.84755417  0.72872461  0.92305298    -0.02900
C1181       C  0.86179553  0.71023114  0.94360410    -0.16300
C1182       C  0.84797910  0.70415108  0.96349988    -0.14300
H1183       H  0.81016056  0.70467751  0.99646699     0.21100
H1184       H  0.80158923  0.75497183  0.92204640     0.17100
H1185       H  0.76517923  0.77567032  0.94520967     0.19600
H1186       H  0.85423572  0.69345010  0.97861049     0.13000
C1187       C  0.15669663  0.76675643  0.99118157     0.16800
C1188       C  0.14545690  0.75300294  0.97330467    -0.32200
C1189       C  0.12248540  0.74394500  0.97816222     0.21200
C1190       C  0.11097932  0.74812633  0.99992903     0.03400
C1191       C  0.12231466  0.76197978  0.01801457    -0.21900
C1192       C  0.14544200  0.77123722  0.01304774     0.12600
S1193       S  0.18495915  0.77843096  0.98866262    -0.05600
C1194       C  0.18215134  0.78912636  0.01759821    -0.09000
C1195       C  0.15995814  0.78442314  0.02829871    -0.25700
S1196       S  0.08276899  0.73539479  0.00161976    -0.02900
C1197       C  0.08675735  0.72476856  0.97258823    -0.16300
C1198       C  0.10878490  0.73070713  0.96258467    -0.14300
H1199       H  0.15430523  0.74943359  0.95627325     0.21100
H1200       H  0.11360139  0.76527897  0.03516207     0.17100
H1201       H  0.15526490  0.78927318  0.04662091     0.19600
H1202       H  0.11438923  0.72585438  0.94450467     0.13000
C1203       C  0.03040031  0.73066631  0.81442999     0.16800
C1204       C  0.02692719  0.71364982  0.83293088    -0.32200
C1205       C  0.03984440  0.71689816  0.85447725     0.21200
C1206       C  0.05621702  0.73566113  0.85691539     0.03400
C1207       C  0.06002270  0.75232542  0.83834914    -0.21900
C1208       C  0.04645467  0.74967573  0.81726415     0.12600
S1209       S  0.01278605  0.73293027  0.78929395    -0.05600
C1210       C  0.02579128  0.76076929  0.78378988    -0.09000
C1211       C  0.04439046  0.76663686  0.79933243    -0.25700
S1212       S  0.06903397  0.73777514  0.88460334    -0.02900
C1213       C  0.05179966  0.71346814  0.89356737    -0.16300
C1214       C  0.03715857  0.70400111  0.87557861    -0.14300
H1215       H  0.01353983  0.69953457  0.83122897     0.21100
H1216       H  0.07189267  0.76765206  0.84087657     0.17100
H1217       H  0.05331946  0.78404706  0.79965124     0.19600
H1218       H  0.02471356  0.68915041  0.87800482     0.13000
loop_ 
_geom_bond_atom_site_label_1 
_geom_bond_atom_site_label_2 
_geom_bond_distance 
_geom_bond_site_symmetry_2 
_ccdc_geom_bond_type 
C1            N2   1.350       .  A
C1            N6   1.359       .  A
C1         C1197   1.477       .  S
N2            C3   1.352       .  A
C3            N4   1.363       .  A
C3         C1213   1.477       .  S
N4            C5   1.367       .  A
C5            N6   1.367       .  A
C5           C51   1.473       .  S
C7            N8   1.361       .  A
C7           N12   1.353       .  A
C7         C1181   1.470       .  S
N8            C9   1.363       .  A
C9           N10   1.360       .  A
C9           C57   1.461       .  S
N10          C11   1.356       .  A
C11          N12   1.351       .  A
C11        C1162   1.465       .  S
C13          N14   1.354       .  A
C13          N18   1.359       .  A
C13        C1133   1.474       .  S
N14          C15   1.353       .  A
C15          N16   1.360       .  A
C15        C1149   1.473       .  S
N16          C17   1.362       .  A
C17          N18   1.363       .  A
C17          C74   1.467       .  S
C19          N20   1.351       .  A
C19          N24   1.360       .  A
C19        C1101   1.474       .  S
N20          C21   1.349       .  A
C21          N22   1.357       .  A
C21        C1114   1.472       .  S
N22          C23   1.364       .  A
C23          N24   1.366       .  A
C23          C80   1.465       .  S
C25          N26   1.360       .  A
C25          N30   1.352       .  A
C25        C1069   1.472       .  S
N26          C27   1.364       .  A
C27          N28   1.360       .  A
C27          C77   1.460       .  S
N28          C29   1.356       .  A
C29          N30   1.351       .  A
C29        C1082   1.461       .  S
C31          N32   1.355       .  A
C31          N36   1.366       .  A
C31        C1034   1.486       .  S
N32          C33   1.352       .  A
C33          N34   1.359       .  A
C33        C1050   1.475       .  S
N34          C35   1.365       .  A
C35          N36   1.370       .  A
C35          C54   1.478       .  S
C37          N38   1.354       .  A
C37          N42   1.358       .  A
C37        C1002   1.461       .  S
N38          C39   1.351       .  A
C39          N40   1.351       .  A
C39        C1021   1.462       .  S
N40          C41   1.356       .  A
C41          N42   1.360       .  A
C41          C60   1.450       .  S
C43          N44   1.348       .  A
C43          N48   1.361       .  A
C43         C973   1.470       .  S
N44          C45   1.353       .  A
C45          N46   1.360       .  A
C45         C989   1.471       .  S
N46          C47   1.364       .  A
C47          N48   1.367       .  A
C47          C71   1.470       .  S
O49         Zr61   2.463       .  S
O49          C51   1.291       .  A
O50         Zr87   2.432   1_456  S
O50          C51   1.287       .  A
O52         Zr64   2.457       .  S
O52          C54   1.289       .  A
O53         Zr88   2.446   1_556  S
O53          C54   1.290       .  A
O55         Zr64   2.442       .  S
O55          C57   1.287       .  A
O56         Zr87   2.427   1_556  S
O56          C57   1.286       .  A
O58         Zr61   2.430       .  S
O58          C60   1.285       .  A
O59         Zr88   2.415   1_456  S
O59          C60   1.284       .  A
Zr61         O62   2.436       .  S
Zr61         O63   2.438       .  S
Zr61         O67   2.370   1_455  S
Zr61         O68   2.378   1_455  S
Zr61         O91   2.381   1_556  S
Zr61         O93   2.365   1_556  S
O62         H105   0.989   1_455  S
O63         H104   0.990       .  S
O63         H108   0.990       .  S
Zr64         O65   2.438       .  S
Zr64         O66   2.433       .  S
Zr64         O68   2.368       .  S
Zr64         O67   2.379       .  S
Zr64         O92   2.378   1_556  S
Zr64         O94   2.375   1_556  S
O65         H106   0.990       .  S
O65         H109   0.990       .  S
O66          H99   0.990       .  S
O67         Zr87   2.387   1_556  S
O68         Zr88   2.392   1_556  S
O68          H95   0.965       .  S
O69         Zr81   2.454       .  S
O69          C71   1.289       .  A
O70         Zr88   2.440   1_455  S
O70          C71   1.289       .  A
O72         Zr84   2.446       .  S
O72          C74   1.288       .  A
O73         Zr87   2.430       .  S
O73          C74   1.287       .  A
O75         Zr84   2.443       .  S
O75          C77   1.287       .  A
O76         Zr88   2.424       .  S
O76          C77   1.285       .  A
O78         Zr81   2.443       .  S
O78          C80   1.288       .  A
O79         Zr87   2.430   1_455  S
O79          C80   1.287       .  A
Zr81         O82   2.435       .  S
Zr81         O83   2.435       .  S
Zr81         O89   2.370   1_455  S
Zr81         O90   2.375   1_455  S
Zr81         O93   2.365       .  S
Zr81         O91   2.368       .  S
O82         H102   0.990       .  S
O82         H107   0.990       .  S
O83         H103   0.990       .  S
Zr84         O85   2.435       .  S
Zr84         O86   2.434       .  S
Zr84         O90   2.365       .  S
Zr84         O89   2.362       .  S
Zr84         O94   2.378       .  S
Zr84         O92   2.373       .  S
O85         H101   0.990       .  S
O86         H100   0.990       .  S
O86         H110   0.990       .  S
Zr87         O90   2.381       .  S
Zr87         O92   2.389       .  S
Zr87         O93   2.385   1_655  S
Zr88         O89   2.384       .  S
Zr88         O91   2.390   1_655  S
Zr88         O94   2.383       .  S
O89          H97   0.966       .  S
O92          H96   0.965       .  S
O93          H98   0.965       .  S
C111        N112   1.356       .  A
C111        N116   1.362       .  A
C111        C938   1.479       .  S
N112        C113   1.355       .  A
C113        N114   1.355       .  A
C113        C957   1.466   1_545  S
N114        C115   1.357       .  A
C115        N116   1.364       .  A
C115        C161   1.462       .  S
C117        N118   1.356       .  A
C117        N122   1.361       .  A
C117        C922   1.475       .  S
N118        C119   1.355       .  A
C119        N120   1.360       .  A
C119        C909   1.475   1_545  S
N120        C121   1.363       .  A
C121        N122   1.363       .  A
C121        C167   1.473       .  S
C123        N124   1.366       .  A
C123        N128   1.351       .  A
C123        C874   1.489       .  S
N124        C125   1.372       .  A
C125        N126   1.369       .  A
C125        C184   1.487       .  S
N126        C127   1.365       .  A
C127        N128   1.350       .  A
C127        C890   1.477       .  S
C129        N130   1.357       .  A
C129        N134   1.352       .  A
C129        C842   1.456       .  S
N130        C131   1.359       .  A
C131        N132   1.362       .  A
C131        C190   1.462       .  S
N132        C133   1.360       .  A
C133        N134   1.352       .  A
C133        C861   1.465       .  S
C135        N136   1.354       .  A
C135        N140   1.352       .  A
C135        C810   1.461       .  S
N136        C137   1.356       .  A
C137        N138   1.361       .  A
C137        C187   1.452       .  S
N138        C139   1.359       .  A
C139        N140   1.354       .  A
C139        C826   1.469       .  S
C141        N142   1.362       .  A
C141        N146   1.351       .  A
C141        C778   1.466       .  S
N142        C143   1.366       .  A
C143        N144   1.362       .  A
C143        C164   1.468       .  S
N144        C145   1.357       .  A
C145        N146   1.352       .  A
C145        C797   1.470       .  S
C147        N148   1.348       .  A
C147        N152   1.359       .  A
C147        C746   1.473       .  S
N148        C149   1.351       .  A
C149        N150   1.367       .  A
C149        C762   1.485   1_545  S
N150        C151   1.373       .  A
C151        N152   1.366       .  A
C151        C170   1.478       .  S
C153        N154   1.349       .  A
C153        N158   1.358       .  A
C153        C730   1.460       .  S
N154        C155   1.352       .  A
C155        N156   1.365       .  A
C155        C717   1.481       .  S
N156        C157   1.369       .  A
C157        N158   1.361       .  A
C157        C181   1.474       .  S
O159       Zr171   2.434       .  S
O159        C161   1.286       .  A
O160       Zr197   2.444       .  S
O160        C161   1.290       .  A
O162       Zr174   2.455       .  S
O162        C164   1.290       .  A
O163       Zr198   2.431   1_556  S
O163        C164   1.288       .  A
O165       Zr174   2.456       .  S
O165        C167   1.290       .  A
O166       Zr197   2.436   1_556  S
O166        C167   1.288       .  A
O168       Zr171   2.452       .  S
O168        C170   1.288       .  A
O169       Zr198   2.449       .  S
O169        C170   1.290       .  A
Zr171       O172   2.435       .  S
Zr171       O173   2.436       .  S
Zr171       O177   2.380       .  S
Zr171       O178   2.364       .  S
Zr171       O201   2.370       .  S
Zr171       O203   2.380       .  S
O172        H215   0.990       .  S
O173        H214   0.990       .  S
O173        H218   0.990       .  S
Zr174       O175   2.436       .  S
Zr174       O176   2.434       .  S
Zr174       O178   2.379   1_556  S
Zr174       O177   2.375   1_556  S
Zr174       O202   2.377       .  S
Zr174       O204   2.365       .  S
O175        H216   0.990       .  S
O175        H219   0.990       .  S
O176        H209   0.990       .  S
O177       Zr197   2.393       .  S
O178       Zr198   2.385       .  S
O178        H205   0.965       .  S
O179       Zr191   2.441       .  S
O179        C181   1.286       .  A
O180       Zr198   2.452       .  S
O180        C181   1.291       .  A
O182       Zr194   2.450       .  S
O182        C184   1.287       .  A
O183       Zr197   2.471   1_556  S
O183        C184   1.295       .  A
O185       Zr194   2.438       .  S
O185        C187   1.286       .  A
O186       Zr198   2.415   1_556  S
O186        C187   1.285       .  A
O188       Zr191   2.449       .  S
O188        C190   1.289       .  A
O189       Zr197   2.423       .  S
O189        C190   1.285       .  A
Zr191       O192   2.437       .  S
Zr191       O193   2.433       .  S
Zr191       O199   2.374       .  S
Zr191       O200   2.373       .  S
Zr191       O203   2.365       .  S
Zr191       O201   2.377       .  S
O192        H212   0.990       .  S
O192        H217   0.990       .  S
O193        H213   0.990       .  S
Zr194       O195   2.433       .  S
Zr194       O196   2.440       .  S
Zr194       O200   2.368   1_556  S
Zr194       O199   2.384   1_556  S
Zr194       O204   2.369       .  S
Zr194       O202   2.377       .  S
O195        H211   0.990       .  S
O196        H210   0.990       .  S
O196        H220   0.990       .  S
Zr197       O200   2.384       .  S
Zr197       O202   2.388   1_554  S
Zr197       O203   2.397       .  S
Zr198       O199   2.393       .  S
Zr198       O201   2.375       .  S
Zr198       O204   2.388   1_554  S
O199        H207   0.967       .  S
O202        H206   0.968       .  S
O203        H208   0.965       .  S
C221        N222   1.352       .  A
C221        N226   1.360       .  A
C221        C682   1.474       .  S
N222        C223   1.352       .  A
C223        N224   1.363       .  A
C223        C701   1.481   1_545  S
N224        C225   1.367       .  A
C225        N226   1.364       .  A
C225        C277   1.472       .  S
C227        N228   1.361       .  A
C227        N232   1.353       .  A
C227        C669   1.470       .  S
N228        C229   1.364       .  A
C229        N230   1.359       .  A
C229        C271   1.463       .  S
N230        C231   1.355       .  A
C231        N232   1.351       .  A
C231        C653   1.455   1_545  S
C233        N234   1.353       .  A
C233        N238   1.355       .  A
C233        C618   1.467       .  S
N234        C235   1.354       .  A
C235        N236   1.363       .  A
C235        C634   1.477       .  S
N236        C237   1.366       .  A
C237        N238   1.357       .  A
C237        C300   1.468       .  S
C239        N240   1.362       .  A
C239        N244   1.352       .  A
C239        C589   1.476       .  S
N240        C241   1.366       .  A
C241        N242   1.364       .  A
C241        C294   1.471       .  S
N242        C243   1.359       .  A
C243        N244   1.351       .  A
C243        C602   1.468       .  S
C245        N246   1.359       .  A
C245        N250   1.352       .  A
C245        C557   1.459       .  S
N246        C247   1.362       .  A
C247        N248   1.363       .  A
C247        C291   1.467       .  S
N248        C249   1.361       .  A
C249        N250   1.352       .  A
C249        C573   1.465       .  S
C251        N252   1.362       .  A
C251        N256   1.353       .  A
C251        C522   1.481       .  S
N252        C253   1.367       .  A
C253        N254   1.362       .  A
C253        C280   1.463       .  S
N254        C255   1.357       .  A
C255        N256   1.352       .  A
C255        C538   1.474   1_545  S
C257        N258   1.352       .  A
C257        N262   1.359       .  A
C257        C493   1.471       .  S
N258        C259   1.352       .  A
C259        N260   1.358       .  A
C259        C506   1.468       .  S
N260        C261   1.363       .  A
C261        N262   1.363       .  A
C261        C274   1.463       .  S
C263        N264   1.358       .  A
C263        N268   1.357       .  A
C263        C458   1.474       .  S
N264        C265   1.359       .  A
C265        N266   1.366       .  A
C265        C297   1.472       .  S
N266        C267   1.365       .  A
C267        N268   1.358       .  A
C267        C477   1.480       .  S
O269       Zr281   2.450       .  S
O269        C271   1.289       .  A
O270       Zr307   2.427       .  S
O270        C271   1.286       .  A
O272       Zr284   2.461       .  S
O272        C274   1.291       .  A
O273       Zr308   2.411   1_455  S
O273        C274   1.283       .  A
O275       Zr284   2.452       .  S
O275        C277   1.290       .  A
O276       Zr307   2.444   1_455  S
O276        C277   1.290       .  A
O278       Zr281   2.425       .  S
O278        C280   1.284       .  A
O279       Zr308   2.446       .  S
O279        C280   1.289       .  A
Zr281       O282   2.435       .  S
Zr281       O283   2.435       .  S
Zr281       O287   2.367       .  S
Zr281       O288   2.373       .  S
Zr281       O311   2.376       .  S
Zr281       O313   2.358       .  S
O282        H325   0.990       .  S
O283        H324   0.990       .  S
O283        H328   0.990       .  S
Zr284       O285   2.435       .  S
Zr284       O286   2.435       .  S
Zr284       O288   2.375   1_455  S
Zr284       O287   2.375   1_455  S
Zr284       O312   2.377       .  S
Zr284       O314   2.365       .  S
O285        H326   0.990       .  S
O285        H329   0.990       .  S
O286        H319   0.990       .  S
O287       Zr307   2.385       .  S
O288       Zr308   2.390       .  S
O288        H315   0.966       .  S
O289       Zr301   2.464       .  S
O289        C291   1.292       .  A
O290       Zr308   2.421       .  S
O290        C291   1.285       .  A
O292       Zr304   2.439       .  S
O292        C294   1.286       .  A
O293       Zr307   2.448   1_455  S
O293        C294   1.290       .  A
O295       Zr304   2.442       .  S
O295        C297   1.286       .  A
O296       Zr308   2.452   1_455  S
O296        C297   1.291       .  A
O298       Zr301   2.445       .  S
O298        C300   1.287       .  A
O299       Zr307   2.443       .  S
O299        C300   1.290       .  A
Zr301       O302   2.435       .  S
Zr301       O303   2.436       .  S
Zr301       O309   2.374       .  S
Zr301       O310   2.381       .  S
Zr301       O313   2.375       .  S
Zr301       O311   2.371       .  S
O302        H322   0.990       .  S
O302        H327   0.990       .  S
O303        H323   0.990       .  S
Zr304       O305   2.436       .  S
Zr304       O306   2.434       .  S
Zr304       O310   2.376   1_455  S
Zr304       O309   2.378   1_455  S
Zr304       O314   2.368       .  S
Zr304       O312   2.371       .  S
O305        H321   0.990       .  S
O306        H320   0.990       .  S
O306        H330   0.990       .  S
Zr307       O310   2.384       .  S
Zr307       O312   2.386   1_655  S
Zr307       O313   2.386       .  S
Zr308       O309   2.388       .  S
Zr308       O311   2.380       .  S
Zr308       O314   2.379   1_655  S
O309        H317   0.966       .  S
O312        H316   0.967       .  S
O313        H318   0.965       .  S
C331        S332   1.801   1_655  S
C331        S335   1.798       .  S
C331        C339   1.353       .  D
S332        C333   1.792   1_455  S
C333        C334   1.349       .  D
C333        C970   1.482   1_655  S
C334        S335   1.792       .  S
C334       C1066   1.479       .  S
C336        S340   1.792       .  S
C336        C337   1.352       .  D
C336        C554   1.481       .  S
C337        S338   1.792   1_655  S
C337        C461   1.489   1_655  S
S338        C339   1.798   1_455  S
C339        S340   1.801       .  S
C341        S342   1.801       .  S
C341        S345   1.802       .  S
C341        C349   1.355       .  D
S342        C343   1.800       .  S
C343        C344   1.349       .  D
C343        C474   1.485       .  S
C344        S345   1.789       .  S
C344        C490   1.480       .  S
C346        S350   1.792       .  S
C346        C347   1.352       .  D
C346        C749   1.489       .  S
C347        S348   1.803       .  S
C347        C714   1.489       .  S
S348        C349   1.804       .  S
C349        S350   1.794       .  S
C351        S352   1.794       .  S
C351        S355   1.793   1_554  S
C351        C359   1.341       .  D
S352        C353   1.781       .  S
C353        C354   1.349       .  D
C353        C986   1.476       .  S
C354        S355   1.783   1_554  S
C354       C1005   1.476   1_554  S
C356        S360   1.782   1_554  S
C356        C357   1.351       .  D
C356        C813   1.475   1_554  S
C357        S358   1.780       .  S
C357        C733   1.478       .  S
S358        C359   1.794       .  S
C359        S360   1.794   1_554  S
C361        S362   1.797       .  S
C361        S365   1.801       .  S
C361        C369   1.354       .  D
S362        C363   1.787       .  S
C363        C364   1.353       .  D
C363        C858   1.487       .  S
C364        S365   1.801       .  S
C364        C941   1.487       .  S
C366        S370   1.802       .  S
C366        C367   1.351       .  D
C366        C525   1.489       .  S
C367        S368   1.786       .  S
C367        C570   1.481       .  S
S368        C369   1.798       .  S
C369        S370   1.802       .  S
C371        S372   1.798       .  S
C371        S375   1.798       .  S
C371        C379   1.350       .  D
S372        C373   1.789       .  S
C373        C374   1.350       .  D
C373        C509   1.481       .  S
C374        S375   1.793       .  S
C374        C541   1.479       .  S
C376        S380   1.794       .  S
C376        C377   1.352       .  D
C376       C1130   1.482       .  S
C377        S378   1.790       .  S
C377       C1098   1.483       .  S
S378        C379   1.794       .  S
C379        S380   1.799       .  S
C381        S382   1.799       .  S
C381        S385   1.796       .  S
C381        C389   1.350       .  D
S382        C383   1.792       .  S
C383        C384   1.353       .  D
C383        C605   1.488       .  S
C384        S385   1.790       .  S
C384        C685   1.482       .  S
C386        S390   1.789       .  S
C386        C387   1.351       .  D
C386        C781   1.480       .  S
C387        S388   1.790       .  S
C387        C829   1.482       .  S
S388        C389   1.797       .  S
C389        S390   1.800       .  S
C391        S392   1.801   1_455  S
C391        S395   1.794       .  S
C391        C399   1.349       .  D
S392        C393   1.786       .  S
C393        C394   1.349   1_655  D
C393       C1053   1.483       .  S
C394        S395   1.790       .  S
C394       C1018   1.473       .  S
C396        S400   1.794       .  S
C396        C397   1.351   1_455  D
C396        C586   1.481       .  S
C397        S398   1.788       .  S
C397        C621   1.482       .  S
S398        C399   1.790   1_655  S
C399        S400   1.801       .  S
C401        S402   1.806       .  S
C401        S405   1.795       .  S
C401        C409   1.355       .  D
S402        C403   1.804       .  S
C403        C404   1.351       .  D
C403        C765   1.490       .  S
C404        S405   1.786       .  S
C404        C794   1.481       .  S
C406        S410   1.787       .  S
C406        C407   1.350       .  D
C406       C1194   1.485       .  S
C407        S408   1.802       .  S
C407       C1117   1.481       .  S
S408        C409   1.800       .  S
C409        S410   1.801       .  S
C411        S412   1.798       .  S
C411        S415   1.804   1_554  S
C411        C419   1.356       .  D
S412        C413   1.785       .  S
C413        C414   1.351       .  D
C413        C845   1.475       .  S
C414        S415   1.804   1_554  S
C414        C877   1.496   1_554  S
C416        S420   1.803   1_554  S
C416        C417   1.350       .  D
C416       C1037   1.491   1_554  S
C417        S418   1.786       .  S
C417       C1085   1.478       .  S
S418        C419   1.797       .  S
C419        S420   1.806   1_554  S
C421        S422   1.801       .  S
C421        S425   1.796   1_455  S
C421        C429   1.353   1_455  D
S422        C423   1.802       .  S
C423        C424   1.352   1_455  D
C423       C1210   1.482       .  S
C424        S425   1.785       .  S
C424       C1165   1.486       .  S
C426        S430   1.779       .  S
C426        C427   1.349   1_655  D
C426        C650   1.468       .  S
C427        S428   1.803       .  S
C427        C698   1.492       .  S
S428        C429   1.804   1_455  S
C429        S430   1.795       .  S
C431        S432   1.799       .  S
C431        S435   1.798       .  S
C431        C439   1.351       .  D
S432        C433   1.793       .  S
C433        C434   1.351       .  D
C433        C893   1.478       .  S
C434        S435   1.790       .  S
C434        C925   1.488       .  S
C436        S440   1.790       .  S
C436        C437   1.353       .  D
C436        C666   1.487       .  S
C437        S438   1.794       .  S
C437        C637   1.481       .  S
S438        C439   1.799       .  S
C439        S440   1.796       .  S
C441        S442   1.787       .  S
C441        S445   1.797   1_554  S
C441        C449   1.345       .  D
S442        C443   1.778       .  S
C443        C444   1.353   1_554  D
C443        C954   1.480       .  S
C444        S445   1.797       .  S
C444        C906   1.481       .  S
C446        S450   1.794       .  S
C446        C447   1.352   1_556  D
C446       C1178   1.474       .  S
C447        S448   1.778       .  S
C447       C1146   1.485       .  S
S448        C449   1.795       .  S
C449        S450   1.794   1_554  S
C451        S457   1.710       .  A
C451        C456   1.387       .  A
C451        C452   1.403       .  A
C452        C453   1.404       .  A
C452        H463   1.083   1_455  S
C453        C462   1.371   1_455  A
C453        C454   1.386       .  A
C454        S460   1.710       .  A
C454        C455   1.402       .  A
C455        C456   1.403       .  A
C455        H464   1.083       .  S
C456        C459   1.370       .  A
S457        C458   1.724       .  A
C458        C459   1.387       .  A
C459        H465   1.083       .  S
S460        C461   1.722       .  A
C461        C462   1.391   1_455  A
C462        H466   1.082       .  S
C467        S473   1.709       .  A
C467        C472   1.386       .  A
C467        C468   1.402       .  A
C468        C469   1.404       .  A
C468        H479   1.083       .  S
C469        C478   1.371       .  A
C469        C470   1.386       .  A
C470        S476   1.716       .  A
C470        C471   1.406       .  A
C471        C472   1.407       .  A
C471        H480   1.083       .  S
C472        C475   1.373       .  A
S473        C474   1.722       .  A
C474        C475   1.389       .  A
C475        H481   1.082       .  S
S476        C477   1.725       .  A
C477        C478   1.389       .  A
C478        H482   1.083       .  S
C483        S489   1.708       .  A
C483        C488   1.386       .  A
C483        C484   1.399       .  A
C484        C485   1.401       .  A
C484        H495   1.083       .  S
C485        C494   1.364       .  A
C485        C486   1.386       .  A
C486        S492   1.714       .  A
C486        C487   1.403       .  A
C487        C488   1.405       .  A
C487        H496   1.083       .  S
C488        C491   1.369       .  A
S489        C490   1.719       .  A
C490        C491   1.387       .  A
C491        H497   1.082       .  S
S492        C493   1.723       .  A
C493        C494   1.386       .  A
C494        H498   1.083       .  S
C499        S505   1.717   1_465  A
C499        C504   1.386       .  A
C499        C500   1.404   1_455  A
C500        C501   1.407       .  A
C500        H511   1.083       .  S
C501        C510   1.368       .  A
C501        C502   1.386   1_655  A
C502        S508   1.705       .  A
C502        C503   1.395       .  A
C503        C504   1.398       .  A
C503        H512   1.083       .  S
C504        C507   1.360       .  A
S505        C506   1.725   1_655  A
C506        C507   1.382   1_545  A
C507        H513   1.084       .  S
S508        C509   1.717   1_455  A
C509        C510   1.390       .  A
C510        H514   1.082       .  S
C515        S521   1.721       .  A
C515        C520   1.385       .  A
C515        C516   1.407       .  A
C516        C517   1.411       .  A
C516        H527   1.083       .  S
C517        C526   1.372       .  A
C517        C518   1.386       .  A
C518        S524   1.708       .  A
C518        C519   1.396       .  A
C519        C520   1.400       .  A
C519        H528   1.083       .  S
C520        C523   1.362       .  A
S521        C522   1.728       .  A
C522        C523   1.387       .  A
C523        H529   1.083       .  S
S524        C525   1.718       .  A
C525        C526   1.395       .  A
C526        H530   1.083       .  S
C531        S537   1.716       .  A
C531        C536   1.386       .  A
C531        C532   1.405       .  A
C532        C533   1.407       .  A
C532        H543   1.083       .  S
C533        C542   1.371       .  A
C533        C534   1.388       .  A
C534        S540   1.704       .  A
C534        C535   1.395       .  A
C535        C536   1.398       .  A
C535        H544   1.083       .  S
C536        C539   1.362       .  A
S537        C538   1.726       .  A
C538        C539   1.385       .  A
C539        H545   1.083       .  S
S540        C541   1.716       .  A
C541        C542   1.391       .  A
C542        H546   1.083       .  S
C547        S553   1.712       .  A
C547        C552   1.387       .  A
C547        C548   1.404       .  A
C548        C549   1.405       .  A
C548        H559   1.083       .  S
C549        C558   1.372       .  A
C549        C550   1.387       .  A
C550        S556   1.702       .  A
C550        C551   1.396       .  A
C551        C552   1.398       .  A
C551        H560   1.083       .  S
C552        C555   1.363       .  A
S553        C554   1.723       .  A
C554        C555   1.385       .  A
C555        H561   1.083       .  S
S556        C557   1.717       .  A
C557        C558   1.386       .  A
C558        H562   1.083       .  S
C563        S569   1.709       .  A
C563        C568   1.387       .  A
C563        C564   1.399       .  A
C564        C565   1.402       .  A
C564        H575   1.083       .  S
C565        C574   1.367       .  A
C565        C566   1.387       .  A
C566        S572   1.712       .  A
C566        C567   1.402       .  A
C567        C568   1.404       .  A
C567        H576   1.083       .  S
C568        C571   1.367       .  A
S569        C570   1.719       .  A
C570        C571   1.389       .  A
C571        H577   1.083       .  S
S572        C573   1.721       .  A
C573        C574   1.384       .  A
C574        H578   1.083       .  S
C579        S585   1.705       .  A
C579        C584   1.388       .  A
C579        C580   1.404       .  A
C580        C581   1.404       .  A
C580        H591   1.083       .  S
C581        C590   1.377       .  A
C581        C582   1.387       .  A
C582        S588   1.698       .  A
C582        C583   1.400       .  A
C583        C584   1.399       .  A
C583        H592   1.083       .  S
C584        C587   1.372       .  A
S585        C586   1.727       .  A
C586        C587   1.384       .  A
C587        H593   1.083       .  S
S588        C589   1.725       .  A
C589        C590   1.388       .  A
C590        H594   1.083       .  S
C595        S601   1.713       .  A
C595        C600   1.387       .  A
C595        C596   1.400       .  A
C596        C597   1.403       .  A
C596        H607   1.083       .  S
C597        C606   1.365       .  A
C597        C598   1.385       .  A
C598        S604   1.712       .  A
C598        C599   1.401       .  A
C599        C600   1.404       .  A
C599        H608   1.083       .  S
C600        C603   1.366       .  A
S601        C602   1.721       .  A
C602        C603   1.387       .  A
C603        H609   1.083       .  S
S604        C605   1.722       .  A
C605        C606   1.389       .  A
C606        H610   1.082       .  S
C611        S617   1.709       .  A
C611        C616   1.387       .  A
C611        C612   1.402       .  A
C612        C613   1.404       .  A
C612        H623   1.083   1_655  S
C613        C622   1.367   1_655  A
C613        C614   1.386       .  A
C614        S620   1.702       .  A
C614        C615   1.395       .  A
C615        C616   1.398       .  A
C615        H624   1.083       .  S
C616        C619   1.362       .  A
S617        C618   1.724       .  A
C618        C619   1.384       .  A
C619        H625   1.083       .  S
S620        C621   1.719       .  A
C621        C622   1.390   1_655  A
C622        H626   1.081       .  S
C627        S633   1.714       .  A
C627        C632   1.386       .  A
C627        C628   1.402       .  A
C628        C629   1.405       .  A
C628        H639   1.083       .  S
C629        C638   1.369       .  A
C629        C630   1.388       .  A
C630        S636   1.708       .  A
C630        C631   1.399       .  A
C631        C632   1.402       .  A
C631        H640   1.083       .  S
C632        C635   1.367       .  A
S633        C634   1.723       .  A
C634        C635   1.389       .  A
C635        H641   1.083       .  S
S636        C637   1.720       .  A
C637        C638   1.389       .  A
C638        H642   1.083       .  S
C643        S649   1.701       .  A
C643        C648   1.388       .  A
C643        C644   1.396       .  A
C644        C645   1.398       .  A
C644        H655   1.083       .  S
C645        C654   1.363       .  A
C645        C646   1.388       .  A
C646        S652   1.708       .  A
C646        C647   1.400       .  A
C647        C648   1.401       .  A
C647        H656   1.083       .  S
C648        C651   1.367       .  A
S649        C650   1.719       .  A
C650        C651   1.382       .  A
C651        H657   1.083       .  S
S652        C653   1.718       .  A
C653        C654   1.380       .  A
C654        H658   1.083   1_565  S
C659        S665   1.707       .  A
C659        C664   1.386       .  A
C659        C660   1.398       .  A
C660        C661   1.401       .  A
C660        H671   1.083       .  S
C661        C670   1.363       .  A
C661        C662   1.387       .  A
C662        S668   1.716       .  A
C662        C663   1.403       .  A
C663        C664   1.406       .  A
C663        H672   1.083       .  S
C664        C667   1.368       .  A
S665        C666   1.720       .  A
C666        C667   1.391       .  A
C667        H673   1.081       .  S
S668        C669   1.723       .  A
C669        C670   1.385       .  A
C670        H674   1.083       .  S
C675        S681   1.713       .  A
C675        C680   1.386       .  A
C675        C676   1.401       .  A
C676        C677   1.405       .  A
C676        H687   1.083       .  S
C677        C686   1.367       .  A
C677        C678   1.387       .  A
C678        S684   1.706       .  A
C678        C679   1.397       .  A
C679        C680   1.400       .  A
C679        H688   1.083       .  S
C680        C683   1.364       .  A
S681        C682   1.723       .  A
C682        C683   1.387       .  A
C683        H689   1.083       .  S
S684        C685   1.719       .  A
C685        C686   1.389       .  A
C686        H690   1.083       .  S
C691        S697   1.710       .  A
C691        C696   1.385       .  A
C691        C692   1.399       .  A
C692        C693   1.402       .  A
C692        H703   1.083       .  S
C693        C702   1.366       .  A
C693        C694   1.385       .  A
C694        S700   1.719       .  A
C694        C695   1.406       .  A
C695        C696   1.410       .  A
C695        H704   1.083       .  S
C696        C699   1.373       .  A
S697        C698   1.720       .  A
C698        C699   1.394       .  A
C699        H705   1.082   1_455  S
S700        C701   1.726       .  A
C701        C702   1.389       .  A
C702        H706   1.083       .  S
C707        S713   1.712       .  A
C707        C712   1.386       .  A
C707        C708   1.400       .  A
C708        C709   1.404       .  A
C708        H719   1.083       .  S
C709        C718   1.366       .  A
C709        C710   1.385       .  A
C710        S716   1.718       .  A
C710        C711   1.404       .  A
C711        C712   1.407       .  A
C711        H720   1.083       .  S
C712        C715   1.371       .  A
S713        C714   1.721       .  A
C714        C715   1.392       .  A
C715        H721   1.083       .  S
S716        C717   1.724       .  A
C717        C718   1.391       .  A
C718        H722   1.083       .  S
C723        S729   1.705       .  A
C723        C728   1.387       .  A
C723        C724   1.395       .  A
C724        C725   1.398       .  A
C724        H735   1.083       .  S
C725        C734   1.360       .  A
C725        C726   1.386       .  A
C726        S732   1.709       .  A
C726        C727   1.401       .  A
C727        C728   1.404       .  A
C727        H736   1.083       .  S
C728        C731   1.366       .  A
S729        C730   1.716       .  A
C730        C731   1.387       .  A
C731        H737   1.083       .  S
S732        C733   1.721       .  A
C733        C734   1.384       .  A
C734        H738   1.083       .  S
C739        S745   1.718       .  A
C739        C744   1.386       .  A
C739        C740   1.405       .  A
C740        C741   1.408       .  A
C740        H751   1.083       .  S
C741        C750   1.369       .  A
C741        C742   1.386       .  A
C742        S748   1.706       .  A
C742        C743   1.396       .  A
C743        C744   1.399       .  A
C743        H752   1.083       .  S
C744        C747   1.363       .  A
S745        C746   1.724       .  A
C746        C747   1.386       .  A
C747        H753   1.084       .  S
S748        C749   1.719       .  A
C749        C750   1.393       .  A
C750        H754   1.082       .  S
C755        S761   1.694       .  A
C755        C760   1.387       .  A
C755        C756   1.400       .  A
C756        C757   1.398       .  A
C756        H767   1.083       .  S
C757        C766   1.375       .  A
C757        C758   1.387       .  A
C758        S764   1.708       .  A
C758        C759   1.410       .  A
C759        C760   1.408       .  A
C759        H768   1.083       .  S
C760        C763   1.386       .  A
S761        C762   1.727       .  A
C762        C763   1.392       .  A
C763        H769   1.083       .  S
S764        C765   1.732       .  A
C765        C766   1.385       .  A
C766        H770   1.083       .  S
C771        S777   1.696       .  A
C771        C776   1.388       .  A
C771        C772   1.395       .  A
C772        C773   1.395       .  A
C772        H783   1.083       .  S
C773        C782   1.365       .  A
C773        C774   1.387       .  A
C774        S780   1.714       .  A
C774        C775   1.409       .  A
C775        C776   1.409       .  A
C775        H784   1.083       .  S
C776        C779   1.380       .  A
S777        C778   1.717       .  A
C778        C779   1.390       .  A
C779        H785   1.083       .  S
S780        C781   1.726       .  A
C781        C782   1.382       .  A
C782        H786   1.083       .  S
C787        S793   1.705       .  A
C787        C792   1.387   1_556  A
C787        C788   1.396       .  A
C788        C789   1.399       .  A
C788        H799   1.083       .  S
C789        C798   1.362       .  A
C789        C790   1.387   1_556  A
C790        S796   1.714       .  A
C790        C791   1.403       .  A
C791        C792   1.406       .  A
C791        H800   1.083       .  S
C792        C795   1.369       .  A
S793        C794   1.719   1_556  A
C794        C795   1.390       .  A
C795        H801   1.082       .  S
S796        C797   1.725   1_564  A
C797        C798   1.384   1_545  A
C798        H802   1.083       .  S
C803        S809   1.706       .  A
C803        C808   1.387       .  A
C803        C804   1.398       .  A
C804        C805   1.401       .  A
C804        H815   1.083   1_556  S
C805        C814   1.363   1_556  A
C805        C806   1.387       .  A
C806        S812   1.705       .  A
C806        C807   1.397       .  A
C807        C808   1.399       .  A
C807        H816   1.083       .  S
C808        C811   1.362       .  A
S809        C810   1.721       .  A
C810        C811   1.383       .  A
C811        H817   1.083       .  S
S812        C813   1.719       .  A
C813        C814   1.386   1_556  A
C814        H818   1.083       .  S
C819        S825   1.711       .  A
C819        C824   1.386       .  A
C819        C820   1.401       .  A
C820        C821   1.404       .  A
C820        H831   1.083       .  S
C821        C830   1.366       .  A
C821        C822   1.386       .  A
C822        S828   1.706       .  A
C822        C823   1.397       .  A
C823        C824   1.400       .  A
C823        H832   1.083       .  S
C824        C827   1.362       .  A
S825        C826   1.723       .  A
C826        C827   1.386       .  A
C827        H833   1.083       .  S
S828        C829   1.719       .  A
C829        C830   1.388       .  A
C830        H834   1.081       .  S
C835        S841   1.705       .  A
C835        C840   1.387       .  A
C835        C836   1.397       .  A
C836        C837   1.400       .  A
C836        H847   1.083       .  S
C837        C846   1.363       .  A
C837        C838   1.387       .  A
C838        S844   1.708       .  A
C838        C839   1.400       .  A
C839        C840   1.401       .  A
C839        H848   1.083       .  S
C840        C843   1.366       .  A
S841        C842   1.718       .  A
C842        C843   1.383       .  A
C843        H849   1.083       .  S
S844        C845   1.720       .  A
C845        C846   1.385       .  A
C846        H850   1.083       .  S
C851        S857   1.709       .  A
C851        C856   1.386       .  A
C851        C852   1.401       .  A
C852        C853   1.403       .  A
C852        H863   1.083       .  S
C853        C862   1.367       .  A
C853        C854   1.387       .  A
C854        S860   1.710       .  A
C854        C855   1.400       .  A
C855        C856   1.402       .  A
C855        H864   1.083       .  S
C856        C859   1.366       .  A
S857        C858   1.722       .  A
C858        C859   1.388       .  A
C859        H865   1.082       .  S
S860        C861   1.720       .  A
C861        C862   1.385       .  A
C862        H866   1.083       .  S
C867        S873   1.724       .  A
C867        C872   1.384       .  A
C867        C868   1.409       .  A
C868        C869   1.412       .  A
C868        H879   1.083   1_556  S
C869        C878   1.376   1_556  A
C869        C870   1.385       .  A
C870        S876   1.711       .  A
C870        C871   1.400       .  A
C871        C872   1.403       .  A
C871        H880   1.083       .  S
C872        C875   1.367       .  A
S873        C874   1.728       .  A
C874        C875   1.392       .  A
C875        H881   1.083       .  S
S876        C877   1.720       .  A
C877        C878   1.397   1_556  A
C878        H882   1.082       .  S
C883        S889   1.699       .  A
C883        C888   1.387       .  A
C883        C884   1.400       .  A
C884        C885   1.399       .  A
C884        H895   1.083       .  S
C885        C894   1.371       .  A
C885        C886   1.388       .  A
C886        S892   1.707       .  A
C886        C887   1.405       .  A
C887        C888   1.404       .  A
C887        H896   1.083       .  S
C888        C891   1.379       .  A
S889        C890   1.726       .  A
C890        C891   1.388       .  A
C891        H897   1.083       .  S
S892        C893   1.726       .  A
C893        C894   1.383       .  A
C894        H898   1.083       .  S
C899        S905   1.707       .  A
C899        C904   1.388       .  A
C899        C900   1.399       .  A
C900        C901   1.402       .  A
C900        H911   1.083       .  S
C901        C910   1.368       .  A
C901        C902   1.387       .  A
C902        S908   1.711       .  A
C902        C903   1.401       .  A
C903        C904   1.404       .  A
C903        H912   1.083   1_556  S
C904        C907   1.369       .  A
S905        C906   1.719       .  A
C906        C907   1.388       .  A
C907        H913   1.083   1_556  S
S908        C909   1.723       .  A
C909        C910   1.387       .  A
C910        H914   1.083       .  S
C915        S921   1.714       .  A
C915        C920   1.386       .  A
C915        C916   1.404       .  A
C916        C917   1.406       .  A
C916        H927   1.083       .  S
C917        C926   1.368       .  A
C917        C918   1.385       .  A
C918        S924   1.708       .  A
C918        C919   1.399       .  A
C919        C920   1.402       .  A
C919        H928   1.083       .  S
C920        C923   1.366       .  A
S921        C922   1.725       .  A
C922        C923   1.386       .  A
C923        H929   1.083       .  S
S924        C925   1.720       .  A
C925        C926   1.391       .  A
C926        H930   1.080       .  S
C931        S937   1.714       .  A
C931        C936   1.386       .  A
C931        C932   1.403       .  A
C932        C933   1.406       .  A
C932        H943   1.083       .  S
C933        C942   1.370       .  A
C933        C934   1.387       .  A
C934        S940   1.711       .  A
C934        C935   1.401       .  A
C935        C936   1.403       .  A
C935        H944   1.083       .  S
C936        C939   1.368       .  A
S937        C938   1.725       .  A
C938        C939   1.389       .  A
C939        H945   1.083       .  S
S940        C941   1.721       .  A
C941        C942   1.391       .  A
C942        H946   1.083       .  S
C947        S953   1.701       .  A
C947        C952   1.387       .  A
C947        C948   1.396       .  A
C948        C949   1.398       .  A
C948        H959   1.083       .  S
C949        C958   1.364       .  A
C949        C950   1.387       .  A
C950        S956   1.709       .  A
C950        C951   1.401       .  A
C951        C952   1.402       .  A
C951        H960   1.083   1_554  S
C952        C955   1.367       .  A
S953        C954   1.721       .  A
C954        C955   1.387       .  A
C955        H961   1.082   1_554  S
S956        C957   1.723       .  A
C957        C958   1.383       .  A
C958        H962   1.083       .  S
C963        S969   1.708       .  A
C963        C968   1.386       .  A
C963        C964   1.402       .  A
C964        C965   1.404       .  A
C964        H975   1.083       .  S
C965        C974   1.372       .  A
C965        C966   1.386       .  A
C966        S972   1.712       .  A
C966        C967   1.404       .  A
C967        C968   1.405       .  A
C967        H976   1.083       .  S
C968        C971   1.373       .  A
S969        C970   1.722       .  A
C970        C971   1.387       .  A
C971        H977   1.083       .  S
S972        C973   1.722       .  A
C973        C974   1.388       .  A
C974        H978   1.083       .  S
C979        S985   1.703       .  A
C979        C984   1.388       .  A
C979        C980   1.393       .  A
C980        C981   1.397       .  A
C980        H991   1.083       .  S
C981        C990   1.358       .  A
C981        C982   1.386       .  A
C982        S988   1.714       .  A
C982        C983   1.401       .  A
C983        C984   1.405       .  A
C983        H992   1.083       .  S
C984        C987   1.364       .  A
S985        C986   1.716       .  A
C986        C987   1.388       .  A
C987        H993   1.083       .  S
S988        C989   1.724       .  A
C989        C990   1.385       .  A
C990        H994   1.083       .  S
C995       S1001   1.711       .  A
C995       C1000   1.387       .  A
C995        C996   1.400   1_556  A
C996        C997   1.403   1_554  A
C996       H1007   1.083       .  S
C997       C1006   1.363   1_556  A
C997        C998   1.387       .  A
C998       S1004   1.704       .  A
C998        C999   1.393       .  A
C999       C1000   1.397       .  A
C999       H1008   1.083       .  S
C1000      C1003   1.358       .  A
S1001      C1002   1.722       .  A
C1002      C1003   1.381       .  A
C1003      H1009   1.084       .  S
S1004      C1005   1.716       .  A
C1005      C1006   1.389   1_556  A
C1006      H1010   1.083       .  S
C1011      S1017   1.702       .  A
C1011      C1016   1.388       .  A
C1011      C1012   1.396       .  A
C1012      C1013   1.398       .  A
C1012      H1023   1.083       .  S
C1013      C1022   1.363       .  A
C1013      C1014   1.388       .  A
C1014      S1020   1.704       .  A
C1014      C1015   1.398       .  A
C1015      C1016   1.401       .  A
C1015      H1024   1.083   1_455  S
C1016      C1019   1.366       .  A
S1017      C1018   1.716       .  A
C1018      C1019   1.386       .  A
C1019      H1025   1.083   1_455  S
S1020      C1021   1.720       .  A
C1021      C1022   1.383       .  A
C1022      H1026   1.084       .  S
C1027      S1033   1.698       .  A
C1027      C1032   1.386       .  A
C1027      C1028   1.400       .  A
C1028      C1029   1.399       .  A
C1028      H1039   1.083       .  S
C1029      C1038   1.374       .  A
C1029      C1030   1.387       .  A
C1030      S1036   1.710   1_556  A
C1030      C1031   1.411       .  A
C1031      C1032   1.409       .  A
C1031      H1040   1.083   1_556  S
C1032      C1035   1.385       .  A
S1033      C1034   1.726       .  A
C1034      C1035   1.394       .  A
C1035      H1041   1.083       .  S
S1036      C1037   1.733   1_554  A
C1037      C1038   1.384       .  A
C1038      H1042   1.083       .  S
C1043      S1049   1.703       .  A
C1043      C1048   1.387       .  A
C1043      C1044   1.401       .  A
C1044      C1045   1.400       .  A
C1044      H1055   1.083       .  S
C1045      C1054   1.371       .  A
C1045      C1046   1.387       .  A
C1046      S1052   1.710   1_655  A
C1046      C1047   1.407       .  A
C1047      C1048   1.406       .  A
C1047      H1056   1.083       .  S
C1048      C1051   1.379       .  A
S1049      C1050   1.723       .  A
C1050      C1051   1.389       .  A
C1051      H1057   1.083       .  S
S1052      C1053   1.728   1_455  A
C1053      C1054   1.383       .  A
C1054      H1058   1.083       .  S
C1059      S1065   1.706       .  A
C1059      C1064   1.386       .  A
C1059      C1060   1.396       .  A
C1060      C1061   1.399       .  A
C1060      H1071   1.083       .  S
C1061      C1070   1.362       .  A
C1061      C1062   1.386       .  A
C1062      S1068   1.716       .  A
C1062      C1063   1.404       .  A
C1063      C1064   1.406       .  A
C1063      H1072   1.083       .  S
C1064      C1067   1.368       .  A
S1065      C1066   1.717       .  A
C1066      C1067   1.388       .  A
C1067      H1073   1.082       .  S
S1068      C1069   1.724       .  A
C1069      C1070   1.385       .  A
C1070      H1074   1.083       .  S
C1075      S1081   1.713       .  A
C1075      C1080   1.387       .  A
C1075      C1076   1.401       .  A
C1076      C1077   1.404       .  A
C1076      H1087   1.083       .  S
C1077      C1086   1.364       .  A
C1077      C1078   1.387       .  A
C1078      S1084   1.706       .  A
C1078      C1079   1.396       .  A
C1079      C1080   1.399       .  A
C1079      H1088   1.083       .  S
C1080      C1083   1.360       .  A
S1081      C1082   1.721       .  A
C1082      C1083   1.382       .  A
C1083      H1089   1.084       .  S
S1084      C1085   1.718       .  A
C1085      C1086   1.388       .  A
C1086      H1090   1.082       .  S
C1091      S1097   1.703       .  A
C1091      C1096   1.386   1_455  A
C1091      C1092   1.394       .  A
C1092      C1093   1.397       .  A
C1092      H1103   1.083       .  S
C1093      C1102   1.358       .  A
C1093      C1094   1.386       .  A
C1094      S1100   1.718   1_455  A
C1094      C1095   1.405   1_455  A
C1095      C1096   1.408       .  A
C1095      H1104   1.083       .  S
C1096      C1099   1.369       .  A
S1097      C1098   1.718   1_455  A
C1098      C1099   1.391       .  A
C1099      H1105   1.082       .  S
S1100      C1101   1.725   1_655  A
C1101      C1102   1.386       .  A
C1102      H1106   1.084       .  S
C1107      S1113   1.714       .  A
C1107      C1112   1.386       .  A
C1107      C1108   1.403       .  A
C1108      C1109   1.406       .  A
C1108      H1119   1.083       .  S
C1109      C1118   1.370       .  A
C1109      C1110   1.387       .  A
C1110      S1116   1.705       .  A
C1110      C1111   1.397       .  A
C1111      C1112   1.399       .  A
C1111      H1120   1.083       .  S
C1112      C1115   1.363       .  A
S1113      C1114   1.722       .  A
C1114      C1115   1.386       .  A
C1115      H1121   1.084       .  S
S1116      C1117   1.717       .  A
C1117      C1118   1.391       .  A
C1118      H1122   1.083       .  S
C1123      S1129   1.707       .  A
C1123      C1128   1.388       .  A
C1123      C1124   1.398       .  A
C1124      C1125   1.400       .  A
C1124      H1135   1.083       .  S
C1125      C1134   1.365       .  A
C1125      C1126   1.386       .  A
C1126      S1132   1.714       .  A
C1126      C1127   1.403       .  A
C1127      C1128   1.406       .  A
C1127      H1136   1.083       .  S
C1128      C1131   1.371       .  A
S1129      C1130   1.718       .  A
C1130      C1131   1.390       .  A
C1131      H1137   1.083       .  S
S1132      C1133   1.724       .  A
C1133      C1134   1.386       .  A
C1134      H1138   1.083       .  S
C1139      S1145   1.707       .  A
C1139      C1144   1.386       .  A
C1139      C1140   1.399       .  A
C1140      C1141   1.402       .  A
C1140      H1151   1.083       .  S
C1141      C1150   1.366       .  A
C1141      C1142   1.387       .  A
C1142      S1148   1.711       .  A
C1142      C1143   1.401       .  A
C1143      C1144   1.403       .  A
C1143      H1152   1.083   1_554  S
C1144      C1147   1.367       .  A
S1145      C1146   1.722       .  A
C1146      C1147   1.389       .  A
C1147      H1153   1.081   1_554  S
S1148      C1149   1.723       .  A
C1149      C1150   1.388       .  A
C1150      H1154   1.083       .  S
C1155      S1161   1.710       .  A
C1155      C1160   1.387       .  A
C1155      C1156   1.400       .  A
C1156      C1157   1.403       .  A
C1156      H1167   1.083       .  S
C1157      C1166   1.366       .  A
C1157      C1158   1.385       .  A
C1158      S1164   1.705       .  A
C1158      C1159   1.398       .  A
C1159      C1160   1.400       .  A
C1159      H1168   1.083       .  S
C1160      C1163   1.364       .  A
S1161      C1162   1.721       .  A
C1162      C1163   1.385       .  A
C1163      H1169   1.084       .  S
S1164      C1165   1.722       .  A
C1165      C1166   1.389       .  A
C1166      H1170   1.079   1_655  S
C1171      S1177   1.703       .  A
C1171      C1176   1.389       .  A
C1171      C1172   1.403       .  A
C1172      C1173   1.402       .  A
C1172      H1183   1.083       .  S
C1173      C1182   1.375       .  A
C1173      C1174   1.387       .  A
C1174      S1180   1.696       .  A
C1174      C1175   1.397       .  A
C1175      C1176   1.396       .  A
C1175      H1184   1.083       .  S
C1176      C1179   1.367       .  A
S1177      C1178   1.726       .  A
C1178      C1179   1.381       .  A
C1179      H1185   1.083       .  S
S1180      C1181   1.723       .  A
C1181      C1182   1.387       .  A
C1182      H1186   1.083       .  S
C1187      S1193   1.705       .  A
C1187      C1192   1.387   1_556  A
C1187      C1188   1.396       .  A
C1188      C1189   1.398       .  A
C1188      H1199   1.083       .  S
C1189      C1198   1.364       .  A
C1189      C1190   1.386       .  A
C1190      S1196   1.722   1_556  A
C1190      C1191   1.410   1_556  A
C1191      C1192   1.412       .  A
C1191      H1200   1.083       .  S
C1192      C1195   1.377       .  A
S1193      C1194   1.717   1_556  A
C1194      C1195   1.394       .  A
C1195      H1201   1.083       .  S
S1196      C1197   1.727   1_554  A
C1197      C1198   1.385       .  A
C1198      H1202   1.084       .  S
C1203      S1209   1.707       .  A
C1203      C1208   1.388       .  A
C1203      C1204   1.406       .  A
C1204      C1205   1.405       .  A
C1204      H1215   1.083       .  S
C1205      C1214   1.379       .  A
C1205      C1206   1.387       .  A
C1206      S1212   1.696       .  A
C1206      C1207   1.399       .  A
C1207      C1208   1.398       .  A
C1207      H1216   1.083       .  S
C1208      C1211   1.372       .  A
S1209      C1210   1.728       .  A
C1210      C1211   1.384       .  A
C1211      H1217   1.083       .  S
S1212      C1213   1.725       .  A
C1213      C1214   1.389       .  A
C1214      H1218   1.083       .  S
