geometry optimzed in LAMMPS
_audit_creation_date              2020-12-01 
_audit_creation_method            'lammps2cif' 
_symmetry_space_group_name_H-M    'P1' 
_symmetry_Int_Tables_number       1 
_symmetry_cell_setting            triclinic 
loop_ 
_symmetry_equiv_pos_as_xyz 
  x,y,z 
_cell_length_a                    31.00376971 
_cell_length_b                    30.98500788569822 
_cell_length_c                    30.722407329212203 
_cell_angle_alpha                 89.98499354159098 
_cell_angle_beta                  90.03153702906495 
_cell_angle_gamma                 89.98038521008803 
loop_ 
_atom_site_label 
_atom_site_type_symbol 
_atom_site_fract_x 
_atom_site_fract_y 
_atom_site_fract_z 
_atom_site_charge 
C1          C  0.21919238  0.22889239  0.22585818     0.32200
C2          C  0.26932888  0.28024891  0.27766674     0.32200
C3          C  0.19863357  0.27143218  0.24056280    -0.04000
C4          C  0.23366328  0.20903863  0.26903879    -0.04700
C5          C  0.26196921  0.24387052  0.20596840    -0.04600
C6          C  0.22427930  0.29770678  0.26701458    -0.04000
C7          C  0.25928160  0.23519952  0.29560804    -0.04700
C8          C  0.28753620  0.27012258  0.23247667    -0.04600
C9          C  0.20085097  0.33427690  0.27603868    -0.30000
N10         N  0.16213540  0.33064646  0.25585549     0.16500
C11         C  0.16019629  0.29261889  0.23415775    -0.30000
H12         H  0.13320831  0.28169595  0.21469351     0.18400
C13         C  0.26738512  0.21239490  0.33312977    -0.29000
N14         N  0.24746721  0.17360615  0.32958028     0.15200
C15         C  0.22679242  0.17103770  0.29085867    -0.29000
C16         C  0.32473126  0.27901885  0.20992006    -0.29300
N17         N  0.32220043  0.25896037  0.17083422     0.15700
H18         H  0.35183855  0.29799103  0.22119683     0.18300
C19         C  0.28426940  0.23738829  0.16784317    -0.29300
H20         H  0.27412454  0.21803228  0.14035235     0.18300
H21         H  0.20767934  0.14389504  0.27989271     0.18300
H22         H  0.21128824  0.36171633  0.29513656     0.18400
H23         H  0.28562008  0.22329124  0.36110379     0.18300
N24         N  0.99386015  0.43936287  0.25381513    -0.34400
N25         N  0.06230748  0.50307834  0.25338835    -0.54900
N26         N  0.99807511  0.57131985  0.25428884    -0.34400
N27         N  0.92964066  0.50739501  0.25216928    -0.54900
C28         C  0.02833653  0.41398826  0.24537832     0.29200
C29         C  0.95814567  0.41627487  0.24405632     0.29200
C30         C  0.03396322  0.59456018  0.24564757     0.29200
C31         C  0.96373668  0.59694838  0.24602359     0.29200
C32         C  0.08635769  0.46742503  0.26034275     0.37800
C33         C  0.08866260  0.53719333  0.25948920     0.37800
C34         C  0.90316512  0.47324098  0.25765591     0.37800
C35         C  0.90540333  0.54302394  0.25853009     0.37800
C36         C  0.01439613  0.37415629  0.23032381    -0.19700
C37         C  0.97006362  0.37559736  0.22948716    -0.19700
C38         C  0.02228487  0.63572394  0.23222642    -0.19700
C39         C  0.97794597  0.63724435  0.23252801    -0.19700
C40         C  0.12838304  0.47890117  0.27064639    -0.20700
C41         C  0.12986042  0.52318338  0.27003383    -0.20700
C42         C  0.86172028  0.48720306  0.26710434    -0.20700
C43         C  0.86313223  0.53147390  0.26766316    -0.20700
C44         C  0.07175094  0.42485038  0.25378390    -0.16100
C45         C  0.91520868  0.42990553  0.25081219    -0.16100
C46         C  0.92012414  0.58569908  0.25280869    -0.16100
C47         C  0.07683018  0.58051389  0.25220894    -0.16100
H48         H  0.03409677  0.34670405  0.22139865     0.16800
H49         H  0.94900007  0.34944217  0.21982003     0.16800
H50         H  0.04348800  0.66213735  0.22364989     0.16800
H51         H  0.95841908  0.66500042  0.22414913     0.16800
H52         H  0.15536060  0.45761680  0.27698240     0.15100
H53         H  0.15816473  0.54278057  0.27592717     0.15100
H54         H  0.83329319  0.46758752  0.27225637     0.15100
H55         H  0.83597624  0.55270537  0.27332875     0.15100
H56         H  0.99453653  0.46851246  0.27044617     0.28400
H57         H  0.99711486  0.54158722  0.26975640     0.28400
C58         C  0.77129307  0.78039982  0.22423008     0.32200
C59         C  0.72185228  0.72934781  0.27696626     0.32200
C60         C  0.79191243  0.73783899  0.23866020    -0.04000
C61         C  0.75756827  0.80044928  0.26753074    -0.04700
C62         C  0.72824604  0.76550233  0.20510627    -0.04600
C63         C  0.76666788  0.71168231  0.26562922    -0.04000
C64         C  0.73231305  0.77439068  0.29451870    -0.04700
C65         C  0.70293706  0.73943530  0.23204103    -0.04600
C66         C  0.79019765  0.67507042  0.27427883    -0.30000
N67         N  0.82853197  0.67863217  0.25336814     0.16500
C68         C  0.83012730  0.71658003  0.23153626    -0.30000
H69         H  0.85681925  0.72749168  0.21167708     0.18400
C70         C  0.72415112  0.79747642  0.33175206    -0.29000
N71         N  0.74371009  0.83636017  0.32772083     0.15200
C72         C  0.76418286  0.83877257  0.28888555    -0.29000
C73         C  0.66529619  0.73092595  0.21005675    -0.29300
N74         N  0.66748832  0.75102842  0.17095190     0.15700
H75         H  0.63813338  0.71228729  0.22173779     0.18300
C76         C  0.70551087  0.77221860  0.16737431    -0.29300
H77         H  0.71537394  0.79156907  0.13977486     0.18300
H78         H  0.78282002  0.86606249  0.27747438     0.18300
H79         H  0.78016528  0.64774977  0.29376938     0.18400
H80         H  0.70596179  0.78677872  0.35982093     0.18300
N81         N  0.24149919  0.93670828  0.50010645    -0.34400
N82         N  0.24298763  0.00221795  0.56682680    -0.54900
N83         N  0.24198292  0.06825113  0.50024024    -0.34400
N84         N  0.24242612  0.00269411  0.43349631    -0.54900
C85         C  0.25157665  0.91282866  0.53544671     0.29200
C86         C  0.25181818  0.91304363  0.46474516     0.29200
C87         C  0.25226391  0.09191617  0.53568234     0.29200
C88         C  0.25188379  0.09226157  0.46492593     0.29200
C89         C  0.23500926  0.96739752  0.59187096     0.37800
C90         C  0.23596436  0.03705912  0.59211320     0.37800
C91         C  0.23599627  0.96786808  0.40802391     0.37800
C92         C  0.23635369  0.03759485  0.40799160     0.37800
C93         C  0.26843757  0.87340266  0.52247638    -0.19700
C94         C  0.26858444  0.87353158  0.47769778    -0.19700
C95         C  0.26854181  0.13160291  0.52279377    -0.19700
C96         C  0.26825808  0.13184109  0.47804929    -0.19700
C97         C  0.22302534  0.98008231  0.63341658    -0.20700
C98         C  0.22372606  0.02438862  0.63359560    -0.20700
C99         C  0.22597232  0.98062224  0.36593409    -0.20700
C100        C  0.22624623  0.02494439  0.36590563    -0.20700
C101        C  0.24269439  0.92464357  0.57874928    -0.16100
C102        C  0.24340016  0.92507484  0.42137760    -0.16100
C103        C  0.24403540  0.08033388  0.42138444    -0.16100
C104        C  0.24425065  0.07976644  0.57911499    -0.16100
H105        H  0.27895957  0.84709785  0.54310932     0.16800
H106        H  0.27927062  0.84733268  0.45703852     0.16800
H107        H  0.27903603  0.15785980  0.54347535     0.16800
H108        H  0.27856832  0.15829812  0.45753091     0.16800
H109        H  0.21559624  0.95958109  0.66094291     0.15100
H110        H  0.21685847  0.04488450  0.66126426     0.15100
H111        H  0.22031896  0.96017556  0.33794231     0.15100
H112        H  0.22079449  0.04545304  0.33790755     0.15100
H113        H  0.22342857  0.96497721  0.50009687     0.28400
H114        H  0.22435249  0.03973780  0.50021161     0.28400
N115        N  0.74253049  0.00662376  0.43280251    -0.34400
N116        N  0.74520417  0.94011335  0.49932981    -0.54900
N117        N  0.74291713  0.00629494  0.56611921    -0.34400
N118        N  0.74406770  0.07273029  0.49960474    -0.54900
C119        C  0.75109701  0.97162349  0.40807597     0.29200
C120        C  0.75118965  0.04181535  0.40833437     0.29200
C121        C  0.75176149  0.97118399  0.59064208     0.29200
C122        C  0.75147418  0.04143219  0.59070705     0.29200
C123        C  0.73949455  0.91471958  0.46411411     0.37800
C124        C  0.73973272  0.91452855  0.53445103     0.37800
C125        C  0.73739793  0.09800406  0.46446714     0.37800
C126        C  0.73722818  0.09781890  0.53482088     0.37800
C127        C  0.76472939  0.98467494  0.36712647    -0.19700
C128        C  0.76488820  0.02903190  0.36732149    -0.19700
C129        C  0.76564004  0.98411495  0.63155686    -0.19700
C130        C  0.76552535  0.02850727  0.63157745    -0.19700
C131        C  0.73112872  0.87261173  0.47688615    -0.20700
C132        C  0.73127732  0.87249014  0.52151047    -0.20700
C133        C  0.72656900  0.13949490  0.47737016    -0.20700
C134        C  0.72643051  0.13937293  0.52203236    -0.20700
C135        C  0.74467202  0.92836707  0.42070330    -0.16100
C136        C  0.74437497  0.08498121  0.42113346    -0.16100
C137        C  0.74421664  0.08463062  0.57812561    -0.16100
C138        C  0.74512478  0.92795248  0.57790891    -0.16100
H139        H  0.77343816  0.96435900  0.33984945     0.16800
H140        H  0.77364595  0.04951752  0.34018518     0.16800
H141        H  0.77459000  0.96369328  0.65869449     0.16800
H142        H  0.77429033  0.04891761  0.65876884     0.16800
H143        H  0.72603611  0.84477296  0.45623564     0.15100
H144        H  0.72632365  0.84453413  0.54204261     0.15100
H145        H  0.72013201  0.16711246  0.45677944     0.15100
H146        H  0.71989800  0.16689438  0.54270091     0.15100
H147        H  0.72687390  0.00646915  0.46263970     0.28400
H148        H  0.72701870  0.00623354  0.53639183     0.28400
C149        C  0.21973254  0.77887189  0.77742084     0.32200
C150        C  0.27116467  0.72878629  0.72565390     0.32200
C151        C  0.20213041  0.73400308  0.76628842    -0.04000
C152        C  0.23031228  0.79734390  0.73245950    -0.04700
C153        C  0.26456027  0.76842947  0.79558430    -0.04600
C154        C  0.22842547  0.70838710  0.73981149    -0.04000
C155        C  0.25659324  0.77171922  0.70605309    -0.04700
C156        C  0.29080274  0.74288862  0.76901686    -0.04600
C157        C  0.20715276  0.67006976  0.73306789    -0.30000
N158        N  0.16913192  0.67202716  0.75471828     0.16500
C159        C  0.16552011  0.71065278  0.77506449    -0.30000
H160        H  0.13819514  0.72095351  0.79437582     0.18400
C161        C  0.26357308  0.79397488  0.66812086    -0.29000
N162        N  0.24226606  0.83199476  0.67103810     0.15200
C163        C  0.22187371  0.83468938  0.70993056    -0.29000
C164        C  0.32904707  0.73667484  0.79054134    -0.29300
N165        N  0.32644028  0.75754874  0.82913302     0.15700
H166        H  0.35646888  0.71808382  0.77938176     0.18300
C167        C  0.28748067  0.77703220  0.83285712    -0.29300
H168        H  0.27666679  0.79552486  0.86068371     0.18300
H169        H  0.20295433  0.86191956  0.72102453     0.18300
H170        H  0.21815299  0.64303876  0.71370317     0.18400
H171        H  0.28302454  0.78372371  0.64075314     0.18300
N172        N  0.06113688  0.50313228  0.75599981    -0.34400
N173        N  0.99728604  0.57191975  0.75498387    -0.54900
N174        N  0.92903894  0.50767612  0.75685326    -0.34400
N175        N  0.99288037  0.43900548  0.75407734    -0.54900
C176        C  0.08655270  0.53761004  0.74772988     0.29200
C177        C  0.08398576  0.46743881  0.74542986     0.29200
C178        C  0.90560379  0.54356695  0.74840264     0.29200
C179        C  0.90325133  0.47321435  0.74947867     0.29200
C180        C  0.03299368  0.59613733  0.76092488     0.37800
C181        C  0.96324552  0.59873327  0.75956481     0.37800
C182        C  0.02707698  0.41247684  0.75905725     0.37800
C183        C  0.95740117  0.41485163  0.76136786     0.37800
C184        C  0.12625582  0.52367750  0.73238315    -0.19700
C185        C  0.12459056  0.47938594  0.73079746    -0.19700
C186        C  0.86418078  0.53173856  0.73609168    -0.19700
C187        C  0.86269506  0.48737286  0.73680715    -0.19700
C188        C  0.02162635  0.63872681  0.76885835    -0.20700
C189        C  0.97740159  0.64040084  0.76782456    -0.20700
C190        C  0.01331628  0.37111816  0.76921553    -0.20700
C191        C  0.96910633  0.37262881  0.77074903    -0.20700
C192        C  0.07558735  0.58114872  0.75540820    -0.16100
C193        C  0.07020836  0.42440327  0.75121243    -0.16100
C194        C  0.91466219  0.42950964  0.75608455    -0.16100
C195        C  0.91974840  0.58664069  0.75378945    -0.16100
H196        H  0.15362705  0.54337991  0.72327341     0.16800
H197        H  0.15050503  0.45836598  0.72040422     0.16800
H198        H  0.83760862  0.55287367  0.72780145     0.16800
H199        H  0.83479740  0.46779186  0.72915930     0.16800
H200        H  0.04295512  0.66592999  0.77388137     0.15100
H201        H  0.95794304  0.66909915  0.77210935     0.15100
H202        H  0.03302340  0.34272474  0.77436609     0.15100
H203        H  0.94799490  0.34556848  0.77725005     0.15100
H204        H  0.03196602  0.50380332  0.77253766     0.28400
H205        H  0.95917644  0.50679552  0.77145078     0.28400
C206        C  0.71978928  0.28160247  0.72480798     0.32200
C207        C  0.77009505  0.23062447  0.77674567     0.32200
C208        C  0.76291240  0.30116107  0.73889844    -0.04000
C209        C  0.69978866  0.26812511  0.76823446    -0.04700
C210        C  0.73345876  0.23830643  0.70526274    -0.04600
C211        C  0.78873391  0.27514840  0.76545923    -0.04000
C212        C  0.72545790  0.24202249  0.79480369    -0.04700
C213        C  0.75911862  0.21220411  0.73182666    -0.04600
C214        C  0.82562828  0.29817127  0.77444528    -0.30000
N215        N  0.82249221  0.33695308  0.75416538     0.16500
C216        C  0.78457247  0.33927832  0.73237156    -0.30000
H217        H  0.77374117  0.36658519  0.71327853     0.18400
C218        C  0.70213056  0.23337523  0.83179463    -0.29000
N219        N  0.66351402  0.25354884  0.82809322     0.15200
C220        C  0.66150558  0.27486448  0.78965240    -0.29000
C221        C  0.76676217  0.17458859  0.70946286    -0.29300
N222        N  0.74661619  0.17754993  0.67043103     0.15700
H223        H  0.78499952  0.14697711  0.72078546     0.18300
C224        C  0.72618947  0.21608233  0.66728675    -0.29300
H225        H  0.70711766  0.22671295  0.63976594     0.18300
H226        H  0.63438589  0.29385792  0.77839168     0.18300
H227        H  0.85265297  0.28765399  0.79409826     0.18400
H228        H  0.71237368  0.21414337  0.85935007     0.18300
N229        N  0.56214925  0.75162497  0.00063752    -0.34400
N230        N  0.49675835  0.75311305  0.93349548    -0.54900
N231        N  0.43079336  0.75206326  0.99995236    -0.34400
N232        N  0.49631977  0.75296298  0.06712562    -0.54900
C233        C  0.58644614  0.76077803  0.96536046     0.29200
C234        C  0.58621861  0.76065897  0.03614151     0.29200
C235        C  0.40711174  0.76241095  0.96454024     0.29200
C236        C  0.40682970  0.76196458  0.03526245     0.29200
C237        C  0.53160723  0.74599669  0.90830588     0.37800
C238        C  0.46198600  0.74679784  0.90794030     0.37800
C239        C  0.53098471  0.74540323  0.09252940     0.37800
C240        C  0.46133366  0.74578042  0.09212772     0.37800
C241        C  0.62658367  0.77566710  0.97854723    -0.19700
C242        C  0.62643949  0.77559121  0.02331783    -0.19700
C243        C  0.36744759  0.77869648  0.97745538    -0.19700
C244        C  0.36726633  0.77840683  0.02219001    -0.19700
C245        C  0.51898556  0.73537498  0.86632378    -0.20700
C246        C  0.47470973  0.73590565  0.86609055    -0.20700
C247        C  0.51802933  0.73370777  0.13408654    -0.20700
C248        C  0.47374281  0.73394464  0.13383072    -0.20700
C249        C  0.57438777  0.75283632  0.92186441    -0.16100
C250        C  0.57389782  0.75242908  0.07950391    -0.16100
C251        C  0.41869082  0.75369774  0.07871827    -0.16100
C252        C  0.41930196  0.75475579  0.92107692    -0.16100
H253        H  0.65343111  0.78491486  0.95805844     0.16800
H254        H  0.65315528  0.78475293  0.04404401     0.16800
H255        H  0.34118406  0.78924612  0.95679917     0.16800
H256        H  0.34083891  0.78868660  0.04273558     0.16800
H257        H  0.53950129  0.72888981  0.83858437     0.15100
H258        H  0.45428012  0.72990654  0.83815598     0.15100
H259        H  0.53833217  0.72652451  0.16183502     0.15100
H260        H  0.45308101  0.72701288  0.16134788     0.15100
H261        H  0.53316204  0.73486503  0.00048059     0.28400
H262        H  0.45925951  0.73436949  0.00001105     0.28400
N263        N  0.49266436  0.25313550  0.93279719    -0.34400
N264        N  0.55934870  0.25515719  0.99929186    -0.54900
N265        N  0.49328807  0.25635323  0.06610942    -0.34400
N266        N  0.42670748  0.25822520  0.99969649    -0.54900
C267        C  0.52780479  0.26093114  0.90802723     0.29200
C268        C  0.45762133  0.26240844  0.90831915     0.29200
C269        C  0.52864478  0.26402644  0.09065230     0.29200
C270        C  0.45839787  0.26553896  0.09079417     0.29200
C271        C  0.58437302  0.24788616  0.96410744     0.37800
C272        C  0.58473691  0.24920390  0.03450500     0.37800
C273        C  0.40145835  0.25050861  0.96475410     0.37800
C274        C  0.40173159  0.25181153  0.03508623     0.37800
C275        C  0.51495317  0.27474585  0.86704478    -0.19700
C276        C  0.47059817  0.27571219  0.86724458    -0.19700
C277        C  0.51607960  0.27793131  0.13167584    -0.19700
C278        C  0.47170365  0.27892315  0.13174860    -0.19700
C279        C  0.62606685  0.23782021  0.97697517    -0.20700
C280        C  0.62629853  0.23865507  0.02162777    -0.20700
C281        C  0.36010957  0.23963293  0.97793594    -0.20700
C282        C  0.36028289  0.24044757  0.02257285    -0.20700
C283        C  0.57093652  0.25353391  0.92064660    -0.16100
C284        C  0.41439725  0.25635068  0.92124120    -0.16100
C285        C  0.41507326  0.25888330  0.07834256    -0.16100
C286        C  0.57167128  0.25604345  0.07791582    -0.16100
H287        H  0.53539070  0.28297843  0.83972116     0.16800
H288        H  0.45023216  0.28476532  0.84010495     0.16800
H289        H  0.53670571  0.28591673  0.15894780     0.16800
H290        H  0.45154265  0.28774303  0.15909417     0.16800
H291        H  0.65358494  0.23119891  0.95635669     0.15100
H292        H  0.65403021  0.23276701  0.04221374     0.15100
H293        H  0.33260540  0.23228729  0.95752760     0.15100
H294        H  0.33293262  0.23381678  0.04340720     0.15100
H295        H  0.49249727  0.23754618  0.96270865     0.28400
H296        H  0.49287743  0.24063900  0.03631597     0.28400
C297        C  0.72137299  0.72996021  0.72433049     0.32200
C298        C  0.77054570  0.78233011  0.77599783     0.32200
C299        C  0.76600274  0.71238038  0.73676671    -0.04000
C300        C  0.73225723  0.77443806  0.70546387    -0.04700
C301        C  0.70213625  0.74145934  0.76872792    -0.04600
C302        C  0.79112944  0.73922704  0.76317775    -0.04000
C303        C  0.75734654  0.80114462  0.73196925    -0.04700
C304        C  0.72729684  0.76822660  0.79508400    -0.04600
C305        C  0.82922561  0.71800778  0.77133570    -0.30000
N306        N  0.82767892  0.67940529  0.75065534     0.16500
C307        C  0.78946668  0.67541575  0.72953062    -0.30000
H308        H  0.77951345  0.64761960  0.71070267     0.18400
C309        C  0.76397384  0.83900575  0.70982915    -0.29000
N310        N  0.74376196  0.83576350  0.67091141     0.15200
C311        C  0.72428455  0.79673216  0.66760997    -0.29000
C312        C  0.70487132  0.77512502  0.83291647    -0.29300
N313        N  0.66718551  0.75329059  0.82995530     0.15700
H314        H  0.71491800  0.79459057  0.86036870     0.18300
C315        C  0.66489472  0.73262301  0.79118160    -0.29300
H316        H  0.63813537  0.71296702  0.78025363     0.18300
H317        H  0.70609289  0.78548521  0.63974797     0.18300
H318        H  0.85584727  0.72947353  0.79099734     0.18400
H319        H  0.78228026  0.86666435  0.72088137     0.18300
C320        C  0.77040277  0.23220259  0.22325898     0.32200
C321        C  0.71910692  0.28223019  0.27522379     0.32200
C322        C  0.78871181  0.27655775  0.23557787    -0.04000
C323        C  0.72602128  0.24384799  0.20460327    -0.04700
C324        C  0.75880166  0.21305798  0.26769692    -0.04600
C325        C  0.76244616  0.30211244  0.26214647    -0.04000
C326        C  0.69983912  0.26940498  0.23120821    -0.04700
C327        C  0.73260074  0.23862309  0.29421354    -0.04600
C328        C  0.78412770  0.34005257  0.26977269    -0.30000
N329        N  0.82242719  0.33798760  0.24863030     0.16500
C330        C  0.82577877  0.29961573  0.22768692    -0.30000
H331        H  0.85315503  0.28933109  0.20844422     0.18400
C332        C  0.66181901  0.27625840  0.20931172    -0.29000
N333        N  0.66447044  0.25567175  0.17051646     0.15200
C334        C  0.70327444  0.23578816  0.16705618    -0.29000
C335        C  0.72525222  0.21597683  0.33190516    -0.29300
N336        N  0.74626577  0.17778149  0.32871539     0.15700
H337        H  0.70595766  0.22621005  0.35939366     0.18300
C338        C  0.76682721  0.17539486  0.28988862    -0.29300
H339        H  0.78581777  0.14825659  0.27869567     0.18300
H340        H  0.71399566  0.21705722  0.13935638     0.18300
H341        H  0.77312660  0.36697907  0.28928597     0.18400
H342        H  0.63437737  0.29477054  0.22054813     0.18300
C343        C  0.26799077  0.27963140  0.72280136     0.32200
C344        C  0.21744962  0.22857390  0.77448856     0.32200
C345        C  0.22312646  0.29754933  0.73367095    -0.04000
C346        C  0.25736080  0.23474292  0.70470363    -0.04700
C347        C  0.28619578  0.26902432  0.76789678    -0.04600
C348        C  0.19732361  0.27136691  0.76005274    -0.04000
C349        C  0.23148835  0.20873411  0.73118493    -0.04700
C350        C  0.26042100  0.24295241  0.79433874    -0.04600
C351        C  0.15910335  0.29278402  0.76670402    -0.30000
N352        N  0.16123134  0.33091863  0.74523893     0.16500
C353        C  0.19992968  0.33440053  0.72497782    -0.30000
H354        H  0.21050756  0.36189411  0.70604111     0.18400
C355        C  0.22463222  0.17065796  0.70945472    -0.29000
N356        N  0.24565006  0.17302900  0.67091707     0.15200
C357        C  0.26570636  0.21174247  0.66739835    -0.29000
C358        C  0.28267154  0.23612575  0.83245365    -0.29300
N359        N  0.32081096  0.25730355  0.82948110     0.15700
H360        H  0.27235345  0.21681774  0.85991392     0.18300
C361        C  0.32349794  0.27745397  0.79045530    -0.29300
H362        H  0.35077871  0.29618980  0.77922593     0.18300
H363        H  0.28446464  0.22234913  0.63968154     0.18300
H364        H  0.13211057  0.28192706  0.78617881     0.18400
H365        H  0.20557506  0.14349955  0.72047907     0.18300
C366        C  0.27203549  0.72874307  0.27535319     0.32200
C367        C  0.22018419  0.77861679  0.22369370     0.32200
C368        C  0.22928876  0.70825169  0.26153130    -0.04000
C369        C  0.25756048  0.77168323  0.29487866    -0.04700
C370        C  0.29134840  0.74260925  0.23179455    -0.04600
C371        C  0.20269667  0.73370290  0.23512824    -0.04000
C372        C  0.23108462  0.79719267  0.26853088    -0.04700
C373        C  0.26490586  0.76809412  0.20531912    -0.04600
C374        C  0.16601665  0.71017875  0.22695218    -0.30000
N375        N  0.16997795  0.67167700  0.24755537     0.16500
C376        C  0.20825338  0.66993894  0.26874793    -0.30000
H377        H  0.21948833  0.64313550  0.28832770     0.18400
C378        C  0.22263451  0.83449838  0.29103476    -0.29000
N379        N  0.24321212  0.83190344  0.32983858     0.15200
C380        C  0.26464605  0.79396037  0.33277786    -0.29000
C381        C  0.28731451  0.77608376  0.16761899    -0.29300
N382        N  0.32611429  0.75620196  0.17093088     0.15700
H383        H  0.27620663  0.79434571  0.13973478     0.18300
C384        C  0.32914037  0.73569828  0.20971480    -0.29300
H385        H  0.35648754  0.71681238  0.22059413     0.18300
H386        H  0.28423100  0.78378894  0.36010963     0.18300
H387        H  0.13833260  0.72036546  0.20807438     0.18400
H388        H  0.20356272  0.86165294  0.27998729     0.18300
N389        N  0.04450780  0.92319161  0.05274445    -0.03900
N390        N  0.07394168  0.89348529  0.06161049    -0.56000
N391        N  0.94491978  0.95376888  0.08260332    -0.03600
N392        N  0.91506524  0.94526568  0.11214730    -0.58100
N393        N  0.94506555  0.92370136  0.05227843    -0.03200
N394        N  0.91528627  0.89429473  0.06067692    -0.56000
N395        N  0.04434305  0.95310898  0.08324391    -0.02800
N396        N  0.07367725  0.94421834  0.11329445    -0.58500
C397        C  0.09231030  0.90727597  0.09910945     0.98300
C398        C  0.89642881  0.90844912  0.09772673     0.98100
N399        N  0.94575562  0.08724317  0.05273115    -0.04100
N400        N  0.91664775  0.11726009  0.06153149    -0.56600
N401        N  0.04475999  0.05607658  0.08334490    -0.02200
N402        N  0.07421328  0.06433605  0.11339215    -0.57800
N403        N  0.04516264  0.08621375  0.05307393    -0.04100
N404        N  0.07492357  0.11549704  0.06210409    -0.56900
N405        N  0.94538890  0.05712187  0.08303818    -0.01800
N406        N  0.91600767  0.06622141  0.11294139    -0.57900
Mn407      Mn  0.99479352  0.00500272  0.08400266     1.18400
C408        C  0.89790654  0.10347035  0.09880694     1.00400
C409        C  0.09319549  0.10113444  0.09944152     1.01000
N410        N  0.94507046  0.92383535  0.94842278    -0.04100
N411        N  0.91521097  0.89457290  0.93972044    -0.60400
N412        N  0.04421645  0.95322823  0.91782004    -0.02900
N413        N  0.07305201  0.94409225  0.88741470    -0.61100
N414        N  0.04434991  0.92320593  0.94821379    -0.03600
N415        N  0.07328044  0.89316551  0.93895695    -0.60700
N416        N  0.94504454  0.95410898  0.91829229    -0.02500
N417        N  0.91521075  0.94596642  0.88861962    -0.61400
Mn418      Mn  0.99483139  0.92251736  0.00044856     1.10700
C419        C  0.89644723  0.90912886  0.90272801     1.01600
C420        C  0.09136465  0.90689796  0.90133263     1.01700
N421        N  0.04518346  0.08619881  0.94878740    -0.03600
N422        N  0.07468059  0.11570171  0.93975454    -0.59000
N423        N  0.94575600  0.05724448  0.91814228    -0.03000
N424        N  0.91666379  0.06635092  0.88794831    -0.55700
N425        N  0.94602445  0.08740255  0.94839628    -0.04300
N426        N  0.91711729  0.11752598  0.93922454    -0.58600
N427        N  0.04483321  0.05615309  0.91843778    -0.03300
N428        N  0.07406893  0.06469306  0.88832380    -0.55800
Mn429      Mn  0.99555470  0.08772562  0.00076775     1.20200
Mn430      Mn  0.99493179  0.00518535  0.91730773     1.10100
Cl431      Cl  0.99502455  0.00511311  0.00063790    -0.83700
C432        C  0.09286026  0.10153670  0.90235187     0.98600
C433        C  0.89863023  0.10367323  0.90181884     0.98400
N434        N  0.44335879  0.45647980  0.41792641    -0.03900
N435        N  0.43373047  0.42797980  0.38731476    -0.56000
N436        N  0.41424937  0.55546222  0.44905659    -0.03600
N437        N  0.38459239  0.58491873  0.44029643    -0.58100
N438        N  0.44427649  0.55551439  0.41869794    -0.03200
N439        N  0.43553594  0.58498870  0.38881682    -0.56000
N440        N  0.41348020  0.45640269  0.44845430    -0.02800
N441        N  0.38310965  0.42786257  0.43910046    -0.58500
C442        C  0.39644290  0.40994332  0.40126773     0.98300
C443        C  0.39863425  0.60350447  0.40305530     0.98100
N444        N  0.44439763  0.55482511  0.58353109    -0.04100
N445        N  0.43580136  0.58415440  0.61360278    -0.56600
N446        N  0.41361057  0.45581308  0.55303972    -0.02200
N447        N  0.38328700  0.42716542  0.56228231    -0.57800
N448        N  0.44367530  0.45556208  0.58341141    -0.04100
N449        N  0.43422132  0.42671783  0.61378147    -0.56900
N450        N  0.41435100  0.55509478  0.55317792    -0.01800
N451        N  0.38483941  0.58464328  0.56209951    -0.57900
Mn452      Mn  0.41306566  0.50564788  0.50093833     1.18400
C453        C  0.39894136  0.60292725  0.59948369     1.00400
C454        C  0.39681701  0.40881025  0.59988034     1.01000
N455        N  0.54757792  0.55519911  0.41831334    -0.04100
N456        N  0.55687531  0.58447013  0.38833154    -0.60400
N457        N  0.57681867  0.45566920  0.44865453    -0.02900
N458        N  0.60616284  0.42584868  0.44011866    -0.61100
N459        N  0.54675793  0.45575169  0.41831560    -0.03600
N460        N  0.55520059  0.42599977  0.38862245    -0.60700
N461        N  0.57749043  0.55496473  0.44879990    -0.02500
N462        N  0.60755150  0.58400449  0.44009663    -0.61400
Mn463      Mn  0.49552152  0.50573320  0.41735912     1.10700
C464        C  0.59400697  0.60260731  0.40267306     1.01600
C465        C  0.59197128  0.40718875  0.40296533     1.01700
N466        N  0.54715555  0.45538469  0.58271980    -0.03600
N467        N  0.55611006  0.42589430  0.61252008    -0.59000
N468        N  0.57744010  0.55479627  0.55280284    -0.03000
N469        N  0.60724651  0.58409030  0.56162266    -0.55700
N470        N  0.54756272  0.55468151  0.58330784    -0.04300
N471        N  0.55661259  0.58392379  0.61337551    -0.58600
N472        N  0.57714682  0.45562583  0.55235005    -0.03300
N473        N  0.60697355  0.42632516  0.56096503    -0.55800
Mn474      Mn  0.49572494  0.50505844  0.58416981     1.20200
Mn475      Mn  0.57809118  0.50529514  0.50063951     1.10100
Cl476      Cl  0.49557210  0.50540128  0.50077023    -0.83700
C477        C  0.59309969  0.40761102  0.59817468     0.98600
C478        C  0.59355963  0.60244278  0.59912484     0.98400
C479        C  0.19227305  0.80626512  0.19593005    -0.16300
C480        C  0.16988706  0.82980980  0.17372464     0.07800
C481        C  0.14359925  0.85761887  0.14777049     0.09600
C482        C  0.12073888  0.88075608  0.12560519    -0.17100
C483        C  0.30020027  0.70207382  0.30346642    -0.16300
C484        C  0.32325126  0.68047121  0.32672840     0.07800
C485        C  0.35002524  0.65471228  0.35390366     0.09600
C486        C  0.37245772  0.63196183  0.37666421    -0.17100
C487        C  0.37010638  0.38050809  0.62631180    -0.16300
C488        C  0.34697998  0.35732844  0.64812548     0.07800
C489        C  0.31934846  0.33030384  0.67346712     0.09600
C490        C  0.29588456  0.30741162  0.69519542    -0.17100
C491        C  0.19018460  0.20077479  0.80237736    -0.16300
C492        C  0.16814744  0.17774204  0.82522030     0.07800
C493        C  0.14246644  0.15072234  0.85220029     0.09600
C494        C  0.12032848  0.12800038  0.87524875    -0.17100
C495        C  0.79807112  0.20455132  0.19535545    -0.16300
C496        C  0.82042874  0.18108248  0.17311165     0.07800
C497        C  0.84673609  0.15333391  0.14721260     0.09600
C498        C  0.86957681  0.13014333  0.12515478    -0.10900
C499        C  0.61825958  0.37883242  0.37650339    -0.16300
C500        C  0.64099071  0.35627309  0.35381674     0.07800
C501        C  0.66806816  0.33065723  0.32673633     0.09600
C502        C  0.69115938  0.30903446  0.30349891    -0.17100
C503        C  0.69411248  0.70189002  0.69648279    -0.16300
C504        C  0.67082662  0.67958522  0.67401343     0.07800
C505        C  0.64323820  0.65347720  0.64778363     0.09600
C506        C  0.62015010  0.63073950  0.62553790    -0.17100
C507        C  0.79686403  0.81093848  0.80397941    -0.16300
C508        C  0.81839346  0.83438264  0.82689959     0.07800
C509        C  0.84433428  0.86130903  0.85374777     0.09600
C510        C  0.86742598  0.88350754  0.87639027    -0.17100
C511        C  0.38129237  0.25696164  0.88814613    -0.11000
C512        C  0.35323643  0.25717233  0.86109514    -0.12600
C513        C  0.63222026  0.25551679  0.13871684    -0.11000
C514        C  0.60452447  0.25573257  0.11128595    -0.12600
C515        C  0.63519742  0.75288585  0.86181136    -0.11000
C516        C  0.60764764  0.75285196  0.88920890    -0.12600
C517        C  0.38545891  0.75486484  0.11143126    -0.11000
C518        C  0.35785676  0.75571508  0.13879270    -0.12600
C519        C  0.79723213  0.20260918  0.80477485    -0.16300
C520        C  0.81956592  0.17935414  0.82726048     0.07800
C521        C  0.84632258  0.15229310  0.85339761     0.09600
C522        C  0.86973365  0.12978924  0.87556110    -0.17100
C523        C  0.61966545  0.37955628  0.62454104    -0.16300
C524        C  0.64246569  0.35698948  0.64707676     0.07800
C525        C  0.66945037  0.33106610  0.67381814     0.09600
C526        C  0.69234251  0.30897814  0.69673654    -0.17100
C527        C  0.60353968  0.25325072  0.88713181    -0.11000
C528        C  0.63109746  0.25325386  0.85963292    -0.12600
C529        C  0.10220311  0.39056148  0.74812056    -0.11000
C530        C  0.12937047  0.36286417  0.74624640    -0.12600
C531        C  0.88756262  0.62049051  0.75257290    -0.11000
C532        C  0.86012340  0.64800841  0.75168668    -0.12600
C533        C  0.85367852  0.36957156  0.75518147    -0.11000
C534        C  0.88076427  0.39741589  0.75572087    -0.12600
C535        C  0.19185377  0.80638572  0.80516593    -0.16300
C536        C  0.16908219  0.82964812  0.82714656     0.07800
C537        C  0.14237828  0.85723054  0.85271625     0.09600
C538        C  0.11945868  0.88033901  0.87471738    -0.17100
C539        C  0.37279948  0.63138460  0.62599064    -0.16300
C540        C  0.35006571  0.65419196  0.64842275     0.07800
C541        C  0.32274582  0.68013965  0.67492520     0.09600
C542        C  0.29933610  0.70193739  0.69766125    -0.17100
C543        C  0.35857313  0.75740546  0.86089507    -0.11000
C544        C  0.38630993  0.75648488  0.88812987    -0.12600
C545        C  0.13769034  0.63973757  0.75502157    -0.11000
C546        C  0.10990353  0.61267238  0.75525063    -0.12600
C547        C  0.74609567  0.14550713  0.36044335    -0.11000
C548        C  0.74551754  0.11791558  0.38793405    -0.12600
C549        C  0.74398263  0.86765195  0.63880774    -0.11000
C550        C  0.74465389  0.89525969  0.61134916    -0.12600
C551        C  0.74595110  0.14524364  0.63873980    -0.11000
C552        C  0.74521118  0.11750261  0.61140231    -0.12600
C553        C  0.24358058  0.89180050  0.38873933    -0.11000
C554        C  0.24337197  0.86405452  0.36153678    -0.12600
C555        C  0.24574790  0.14071001  0.63926696    -0.11000
C556        C  0.24535323  0.11286240  0.61207101    -0.12600
C557        C  0.24262864  0.89141900  0.61152384    -0.11000
C558        C  0.24233477  0.86397968  0.63909992    -0.12600
C559        C  0.62086465  0.63079499  0.37647099    -0.16300
C560        C  0.64412585  0.65353691  0.35445302     0.07800
C561        C  0.67162308  0.67970367  0.32824549     0.09600
C562        C  0.69467347  0.70189762  0.30546057    -0.17100
C563        C  0.79791845  0.80833145  0.19580159    -0.16300
C564        C  0.81962226  0.83167518  0.17291779     0.07800
C565        C  0.84538783  0.85912575  0.14639290     0.09600
C566        C  0.86803218  0.88207620  0.12403393    -0.17100
C567        C  0.60704838  0.75186900  0.11241612    -0.11000
C568        C  0.63488614  0.75129584  0.13961361    -0.12600
C569        C  0.74449207  0.89589150  0.38712460    -0.11000
C570        C  0.74405938  0.86850326  0.35949617    -0.12600
C571        C  0.11072236  0.61241793  0.25026920    -0.11000
C572        C  0.13837716  0.63957149  0.24875041    -0.12600
C573        C  0.88158673  0.39756729  0.24970397    -0.11000
C574        C  0.85406352  0.37017012  0.24909111    -0.12600
C575        C  0.86092780  0.64726849  0.25310374    -0.11000
C576        C  0.88835190  0.61981010  0.25277944    -0.12600
C577        C  0.29678878  0.30818085  0.30543368    -0.16300
C578        C  0.31977702  0.33120787  0.32745348     0.07800
C579        C  0.34693118  0.35835470  0.35304131     0.09600
C580        C  0.36982752  0.38162321  0.37491687    -0.17100
C581        C  0.19204649  0.20071631  0.19808839    -0.16300
C582        C  0.16993062  0.17725955  0.17566664     0.07800
C583        C  0.14391177  0.14992569  0.14917342     0.09600
C584        C  0.12132074  0.12725079  0.12641033    -0.17100
C585        C  0.35450201  0.25934732  0.13909510    -0.11000
C586        C  0.38232206  0.25947252  0.11179985    -0.12600
C587        C  0.24568620  0.11361659  0.38861089    -0.11000
C588        C  0.24684018  0.14152392  0.36148251    -0.12600
C589        C  0.13017154  0.36248479  0.25532253    -0.11000
C590        C  0.10327075  0.39047722  0.25453502    -0.12600
loop_ 
_geom_bond_atom_site_label_1 
_geom_bond_atom_site_label_2 
_geom_bond_distance 
_geom_bond_site_symmetry_2 
_ccdc_geom_bond_type 
C1            C3   1.532       .  S
C1            C5   1.533       .  S
C1            C4   1.529       .  S
C1          C581   1.483       .  S
C2            C6   1.533       .  S
C2            C8   1.532       .  S
C2            C7   1.533       .  S
C2          C577   1.484       .  S
C3           C11   1.374       .  A
C3            C6   1.398       .  A
C4           C15   1.372       .  A
C4            C7   1.398       .  A
C5           C19   1.375       .  A
C5            C8   1.398       .  A
C6            C9   1.374       .  A
C7           C13   1.375       .  A
C8           C16   1.374       .  A
C9           N10   1.355       .  A
C9           H22   1.083       .  S
N10          C11   1.355       .  A
N10         C589   1.398       .  S
C11          H12   1.083       .  S
C13          N14   1.356       .  A
C13          H23   1.083       .  S
N14          C15   1.353       .  A
N14         C588   1.396       .  S
C15          H21   1.083       .  S
C16          N17   1.355       .  A
C16          H18   1.083       .  S
N17          C19   1.356       .  A
N17         C585   1.398       .  S
C19          H20   1.083       .  S
N24          C29   1.352       .  A
N24          C28   1.352   1_655  A
N24          H56   1.038       .  S
N25          C32   1.350       .  A
N25          C33   1.349       .  A
N26          C31   1.352       .  A
N26          C30   1.352   1_655  A
N26          H57   1.037       .  S
N27          C34   1.350       .  A
N27          C35   1.350       .  A
C28          C36   1.387       .  A
C28          C44   1.411       .  A
C29          C45   1.412       .  A
C29          C37   1.388       .  A
C30          C38   1.388       .  A
C30          C47   1.413       .  A
C31          C46   1.412       .  A
C31          C39   1.388       .  A
C32          C44   1.409       .  A
C32          C40   1.387       .  A
C33          C47   1.409       .  A
C33          C41   1.387       .  A
C34          C42   1.387       .  A
C34          C45   1.409       .  A
C35          C43   1.387       .  A
C35          C46   1.410       .  A
C36          C37   1.375   1_455  A
C36          H48   1.082       .  S
C37          H49   1.082       .  S
C38          C39   1.376   1_455  A
C38          H50   1.083       .  S
C39          H51   1.082       .  S
C40          C41   1.373       .  A
C40          H52   1.082       .  S
C41          H53   1.083       .  S
C42          C43   1.373       .  A
C42          H54   1.082       .  S
C43          H55   1.082       .  S
C44         C590   1.445       .  S
C45         C573   1.447       .  S
C46         C576   1.445       .  S
C47         C571   1.444       .  S
C58          C60   1.531       .  S
C58          C62   1.529       .  S
C58          C61   1.529       .  S
C58         C563   1.481       .  S
C59          C63   1.533       .  S
C59          C65   1.531       .  S
C59          C64   1.531       .  S
C59         C562   1.483       .  S
C60          C68   1.373       .  A
C60          C63   1.399       .  A
C61          C72   1.372       .  A
C61          C64   1.398       .  A
C62          C76   1.372       .  A
C62          C65   1.398       .  A
C63          C66   1.374       .  A
C64          C70   1.373       .  A
C65          C73   1.374       .  A
C66          N67   1.356       .  A
C66          H79   1.083       .  S
N67          C68   1.354       .  A
N67         C575   1.397       .  S
C68          H69   1.083       .  S
C70          N71   1.355       .  A
C70          H80   1.083       .  S
N71          C72   1.354       .  A
N71         C570   1.395       .  S
C72          H78   1.083       .  S
C73          N74   1.355       .  A
C73          H75   1.083       .  S
N74          C76   1.354       .  A
N74         C568   1.396       .  S
C76          H77   1.083       .  S
N81          C86   1.349       .  A
N81          C85   1.350       .  A
N81         H113   1.040       .  S
N82          C89   1.348   1_545  A
N82          C90   1.348       .  A
N83          C88   1.351       .  A
N83          C87   1.351       .  A
N83         H114   1.039       .  S
N84          C91   1.348   1_545  A
N84          C92   1.348       .  A
C85          C93   1.387       .  A
C85         C101   1.407       .  A
C86         C102   1.408       .  A
C86          C94   1.388       .  A
C87          C95   1.387       .  A
C87         C104   1.409       .  A
C88         C103   1.409       .  A
C88          C96   1.387       .  A
C89         C101   1.405       .  A
C89          C97   1.386       .  A
C90         C104   1.406       .  A
C90          C98   1.387       .  A
C91          C99   1.387       .  A
C91         C102   1.407       .  A
C92         C100   1.387       .  A
C92         C103   1.407       .  A
C93          C94   1.376       .  A
C93         H105   1.083       .  S
C94         H106   1.083       .  S
C95          C96   1.375       .  A
C95         H107   1.082       .  S
C96         H108   1.082       .  S
C97          C98   1.373   1_565  A
C97         H109   1.082       .  S
C98         H110   1.082       .  S
C99         C100   1.373   1_565  A
C99         H111   1.083       .  S
C100        H112   1.082       .  S
C101        C557   1.440       .  S
C102        C553   1.438       .  S
C103        C587   1.442       .  S
C104        C556   1.442       .  S
N115        C120   1.351       .  A
N115        C119   1.351   1_545  A
N115        H147   1.038       .  S
N116        C123   1.350       .  A
N116        C124   1.350       .  A
N117        C122   1.352       .  A
N117        C121   1.351   1_545  A
N117        H148   1.038       .  S
N118        C125   1.349       .  A
N118        C126   1.349       .  A
C119        C127   1.388       .  A
C119        C135   1.409       .  A
C120        C136   1.410       .  A
C120        C128   1.388       .  A
C121        C129   1.388       .  A
C121        C138   1.411       .  A
C122        C137   1.411       .  A
C122        C130   1.388       .  A
C123        C135   1.408       .  A
C123        C131   1.387       .  A
C124        C138   1.408       .  A
C124        C132   1.387       .  A
C125        C133   1.387       .  A
C125        C136   1.408       .  A
C126        C134   1.387       .  A
C126        C137   1.408       .  A
C127        C128   1.374   1_565  A
C127        H139   1.083       .  S
C128        H140   1.082       .  S
C129        C130   1.376   1_565  A
C129        H141   1.083       .  S
C130        H142   1.083       .  S
C131        C132   1.371       .  A
C131        H143   1.082       .  S
C132        H144   1.082       .  S
C133        C134   1.372       .  A
C133        H145   1.082       .  S
C134        H146   1.082       .  S
C135        C569   1.441       .  S
C136        C548   1.443       .  S
C137        C552   1.444       .  S
C138        C550   1.443       .  S
C149        C151   1.532       .  S
C149        C153   1.532       .  S
C149        C152   1.531       .  S
C149        C535   1.484       .  S
C150        C154   1.532       .  S
C150        C156   1.528       .  S
C150        C155   1.528       .  S
C150        C542   1.482       .  S
C151        C159   1.373       .  A
C151        C154   1.399       .  A
C152        C163   1.373       .  A
C152        C155   1.398       .  A
C153        C167   1.374       .  A
C153        C156   1.398       .  A
C154        C157   1.374       .  A
C155        C161   1.371       .  A
C156        C164   1.371       .  A
C157        N158   1.355       .  A
C157        H170   1.083       .  S
N158        C159   1.355       .  A
N158        C545   1.397       .  S
C159        H160   1.083       .  S
C161        N162   1.353       .  A
C161        H171   1.083       .  S
N162        C163   1.355       .  A
N162        C558   1.394       .  S
C163        H169   1.083       .  S
C164        N165   1.353       .  A
C164        H166   1.083       .  S
N165        C167   1.355       .  A
N165        C543   1.394       .  S
C167        H168   1.083       .  S
N172        C177   1.353       .  A
N172        C176   1.352       .  A
N172        H204   1.038       .  S
N173        C180   1.350   1_655  A
N173        C181   1.350       .  A
N174        C179   1.353       .  A
N174        C178   1.353       .  A
N174        H205   1.037       .  S
N175        C182   1.350   1_655  A
N175        C183   1.349       .  A
C176        C184   1.387       .  A
C176        C192   1.411       .  A
C177        C193   1.412       .  A
C177        C185   1.387       .  A
C178        C186   1.388       .  A
C178        C195   1.415       .  A
C179        C194   1.414       .  A
C179        C187   1.387       .  A
C180        C192   1.410       .  A
C180        C188   1.387       .  A
C181        C195   1.411       .  A
C181        C189   1.387       .  A
C182        C190   1.386       .  A
C182        C193   1.408       .  A
C183        C191   1.388       .  A
C183        C194   1.410       .  A
C184        C185   1.374       .  A
C184        H196   1.082       .  S
C185        H197   1.082       .  S
C186        C187   1.376       .  A
C186        H198   1.082       .  S
C187        H199   1.082       .  S
C188        C189   1.372   1_455  A
C188        H200   1.083       .  S
C189        H201   1.082       .  S
C190        C191   1.372   1_455  A
C190        H202   1.082       .  S
C191        H203   1.082       .  S
C192        C546   1.445       .  S
C193        C529   1.446       .  S
C194        C534   1.447       .  S
C195        C531   1.448       .  S
C206        C208   1.530       .  S
C206        C210   1.530       .  S
C206        C209   1.530       .  S
C206        C526   1.478       .  S
C207        C211   1.536       .  S
C207        C213   1.532       .  S
C207        C212   1.532       .  S
C207        C519   1.484       .  S
C208        C216   1.374       .  A
C208        C211   1.398       .  A
C209        C220   1.373       .  A
C209        C212   1.397       .  A
C210        C224   1.373       .  A
C210        C213   1.397       .  A
C211        C214   1.376       .  A
C212        C218   1.374       .  A
C213        C221   1.374       .  A
C214        N215   1.357       .  A
C214        H227   1.083       .  S
N215        C216   1.355       .  A
N215        C533   1.399       .  S
C216        H217   1.083       .  S
C218        N219   1.355       .  A
C218        H228   1.083       .  S
N219        C220   1.354       .  A
N219        C528   1.396       .  S
C220        H226   1.083       .  S
C221        N222   1.355       .  A
C221        H223   1.083       .  S
N222        C224   1.355       .  A
N222        C551   1.397       .  S
C224        H225   1.083       .  S
N229        C234   1.351       .  A
N229        C233   1.350   1_554  A
N229        H261   1.038       .  S
N230        C237   1.347       .  A
N230        C238   1.348       .  A
N231        C236   1.350   1_556  A
N231        C235   1.351       .  A
N231        H262   1.039   1_556  S
N232        C239   1.348       .  A
N232        C240   1.348       .  A
C233        C241   1.388       .  A
C233        C249   1.409       .  A
C234        C250   1.409       .  A
C234        C242   1.387       .  A
C235        C243   1.387       .  A
C235        C252   1.408       .  A
C236        C251   1.408       .  A
C236        C244   1.387       .  A
C237        C249   1.406       .  A
C237        C245   1.387       .  A
C238        C252   1.405       .  A
C238        C246   1.387       .  A
C239        C247   1.387       .  A
C239        C250   1.407       .  A
C240        C248   1.387       .  A
C240        C251   1.406       .  A
C241        C242   1.375   1_556  A
C241        H253   1.083       .  S
C242        H254   1.082       .  S
C243        C244   1.374   1_556  A
C243        H255   1.082       .  S
C244        H256   1.082       .  S
C245        C246   1.373       .  A
C245        H257   1.083       .  S
C246        H258   1.083       .  S
C247        C248   1.373       .  A
C247        H259   1.082       .  S
C248        H260   1.082       .  S
C249        C516   1.439       .  S
C250        C567   1.441       .  S
C251        C517   1.440       .  S
C252        C544   1.440       .  S
N263        C268   1.352       .  A
N263        C267   1.351       .  A
N263        H295   1.038       .  S
N264        C271   1.350       .  A
N264        C272   1.350   1_556  A
N265        C270   1.352       .  A
N265        C269   1.351       .  A
N265        H296   1.037       .  S
N266        C273   1.350       .  A
N266        C274   1.350   1_556  A
C267        C275   1.388       .  A
C267        C283   1.411       .  A
C268        C284   1.410       .  A
C268        C276   1.387       .  A
C269        C277   1.388       .  A
C269        C286   1.412       .  A
C270        C285   1.412       .  A
C270        C278   1.387       .  A
C271        C283   1.409       .  A
C271        C279   1.387       .  A
C272        C286   1.410       .  A
C272        C280   1.387       .  A
C273        C281   1.386       .  A
C273        C284   1.408       .  A
C274        C282   1.387       .  A
C274        C285   1.409       .  A
C275        C276   1.376       .  A
C275        H287   1.083       .  S
C276        H288   1.082       .  S
C277        C278   1.376       .  A
C277        H289   1.082       .  S
C278        H290   1.082       .  S
C279        C280   1.372   1_556  A
C279        H291   1.082       .  S
C280        H292   1.082       .  S
C281        C282   1.372   1_556  A
C281        H293   1.082       .  S
C282        H294   1.082       .  S
C283        C527   1.443       .  S
C284        C511   1.444       .  S
C285        C586   1.445       .  S
C286        C514   1.445       .  S
C297        C299   1.535       .  S
C297        C301   1.531       .  S
C297        C300   1.533       .  S
C297        C503   1.484       .  S
C298        C302   1.532       .  S
C298        C304   1.528       .  S
C298        C303   1.528       .  S
C298        C507   1.480       .  S
C299        C307   1.375       .  A
C299        C302   1.399       .  A
C300        C311   1.375       .  A
C300        C303   1.398       .  A
C301        C315   1.373       .  A
C301        C304   1.397       .  A
C302        C305   1.374       .  A
C303        C309   1.372       .  A
C304        C312   1.371       .  A
C305        N306   1.355       .  A
C305        H318   1.083       .  S
N306        C307   1.356       .  A
N306        C532   1.399       .  S
C307        H308   1.083       .  S
C309        N310   1.353       .  A
C309        H319   1.083       .  S
N310        C311   1.356       .  A
N310        C549   1.396       .  S
C311        H317   1.083       .  S
C312        N313   1.353       .  A
C312        H314   1.083       .  S
N313        C315   1.354       .  A
N313        C515   1.394       .  S
C315        H316   1.083       .  S
C320        C322   1.535       .  S
C320        C324   1.531       .  S
C320        C323   1.533       .  S
C320        C495   1.485       .  S
C321        C325   1.532       .  S
C321        C327   1.530       .  S
C321        C326   1.531       .  S
C321        C502   1.482       .  S
C322        C330   1.375       .  A
C322        C325   1.399       .  A
C323        C334   1.375       .  A
C323        C326   1.398       .  A
C324        C338   1.374       .  A
C324        C327   1.397       .  A
C325        C328   1.374       .  A
C326        C332   1.373       .  A
C327        C335   1.373       .  A
C328        N329   1.355       .  A
C328        H341   1.083       .  S
N329        C330   1.356       .  A
N329        C574   1.399       .  S
C330        H331   1.083       .  S
C332        N333   1.355       .  A
C332        H342   1.083       .  S
N333        C334   1.356       .  A
N333        C513   1.398       .  S
C334        H340   1.083       .  S
C335        N336   1.354       .  A
C335        H337   1.083       .  S
N336        C338   1.355       .  A
N336        C547   1.396       .  S
C338        H339   1.083       .  S
C343        C345   1.534       .  S
C343        C347   1.531       .  S
C343        C346   1.534       .  S
C343        C490   1.486       .  S
C344        C348   1.531       .  S
C344        C350   1.531       .  S
C344        C349   1.529       .  S
C344        C491   1.480       .  S
C345        C353   1.375       .  A
C345        C348   1.399       .  A
C346        C357   1.374       .  A
C346        C349   1.398       .  A
C347        C361   1.373       .  A
C347        C350   1.397       .  A
C348        C351   1.373       .  A
C349        C355   1.372       .  A
C350        C358   1.375       .  A
C351        N352   1.355       .  A
C351        H364   1.083       .  S
N352        C353   1.356       .  A
N352        C530   1.399       .  S
C353        H354   1.083       .  S
C355        N356   1.354       .  A
C355        H365   1.083       .  S
N356        C357   1.356       .  A
N356        C555   1.396       .  S
C357        H363   1.083       .  S
C358        N359   1.356       .  A
C358        H360   1.083       .  S
N359        C361   1.354       .  A
N359        C512   1.397       .  S
C361        H362   1.083       .  S
C366        C368   1.530       .  S
C366        C370   1.528       .  S
C366        C369   1.527       .  S
C366        C483   1.480       .  S
C367        C371   1.534       .  S
C367        C373   1.532       .  S
C367        C372   1.531       .  S
C367        C479   1.486       .  S
C368        C376   1.373       .  A
C368        C371   1.399       .  A
C369        C380   1.371       .  A
C369        C372   1.397       .  A
C370        C384   1.371       .  A
C370        C373   1.398       .  A
C371        C374   1.374       .  A
C372        C378   1.372       .  A
C373        C381   1.373       .  A
C374        N375   1.356       .  A
C374        H387   1.083       .  S
N375        C376   1.354       .  A
N375        C572   1.397       .  S
C376        H377   1.083       .  S
C378        N379   1.354       .  A
C378        H388   1.083       .  S
N379        C380   1.353       .  A
N379        C554   1.393       .  S
C380        H386   1.083       .  S
C381        N382   1.355       .  A
C381        H383   1.083       .  S
N382        C384   1.353       .  A
N382        C518   1.395       .  S
C384        H385   1.083       .  S
N389        N390   1.324       .  A
N389        N395   1.318       .  A
N389       Mn418   2.225   1_455  S
N390        C397   1.354       .  A
N391        N393   1.318       .  A
N391        N392   1.323       .  A
N391       Mn407   2.217   1_565  S
N392        C398   1.353       .  A
N393        N394   1.323       .  A
N393       Mn418   2.218       .  S
N394        C398   1.353       .  A
N395        N396   1.324       .  A
N395       Mn407   2.224   1_465  S
N396        C397   1.354       .  A
C397        C482   1.454       .  S
C398        C566   1.448       .  S
N399        N405   1.318       .  A
N399        N400   1.324       .  A
N399       Mn429   2.222       .  S
N400        C408   1.354       .  A
N401        N402   1.323       .  A
N401        N403   1.318       .  A
N401       Mn407   2.215   1_455  S
N402        C409   1.353       .  A
N403        N404   1.324       .  A
N403       Mn429   2.224   1_455  S
N404        C409   1.354       .  A
N405        N406   1.324       .  A
N405       Mn407   2.226       .  S
N406        C408   1.354       .  A
Mn407      Cl431   2.561       .  S
C408        C498   1.453       .  S
C409        C584   1.450       .  S
N410        N411   1.323       .  A
N410        N416   1.318       .  A
N410       Mn418   2.221   1_556  S
N411        C419   1.354       .  A
N412        N414   1.318       .  A
N412        N413   1.324       .  A
N412       Mn430   2.219   1_465  S
N413        C420   1.354       .  A
N414        N415   1.323       .  A
N414       Mn418   2.222   1_456  S
N415        C420   1.354       .  A
N416        N417   1.323       .  A
N416       Mn430   2.213   1_565  S
N417        C419   1.353       .  A
Mn418      Cl431   2.559   1_565  S
C419        C510   1.447       .  S
C420        C538   1.451       .  S
N421        N422   1.323       .  A
N421        N427   1.318       .  A
N421       Mn429   2.219   1_456  S
N422        C432   1.353       .  A
N423        N424   1.324       .  A
N423        N425   1.318       .  A
N423       Mn430   2.219       .  S
N424        C433   1.353       .  A
N425        N426   1.324       .  A
N425       Mn429   2.224   1_556  S
N426        C433   1.354       .  A
N427        N428   1.322       .  A
N427       Mn430   2.211   1_455  S
N428        C432   1.352       .  A
Mn429      Cl431   2.560       .  S
Mn430      Cl431   2.560   1_556  S
C432        C494   1.446       .  S
C433        C522   1.451       .  S
N434        N435   1.324       .  A
N434        N440   1.319       .  A
N434       Mn463   2.224       .  S
N435        C442   1.354       .  A
N436        N438   1.318       .  A
N436        N437   1.323       .  A
N436       Mn452   2.219       .  S
N437        C443   1.353       .  A
N438        N439   1.323       .  A
N438       Mn463   2.214       .  S
N439        C443   1.353       .  A
N440        N441   1.323       .  A
N440       Mn452   2.220       .  S
N441        C442   1.353       .  A
C442        C580   1.451       .  S
C443        C486   1.446       .  S
N444        N450   1.318       .  A
N444        N445   1.323       .  A
N444       Mn474   2.216       .  S
N445        C453   1.353       .  A
N446        N447   1.324       .  A
N446        N448   1.319       .  A
N446       Mn452   2.224       .  S
N447        C454   1.354       .  A
N448        N449   1.325       .  A
N448       Mn474   2.227       .  S
N449        C454   1.355       .  A
N450        N451   1.323       .  A
N450       Mn452   2.219       .  S
N451        C453   1.353       .  A
Mn452      Cl476   2.558       .  S
C453        C539   1.449       .  S
C454        C487   1.454       .  S
N455        N456   1.324       .  A
N455        N461   1.318       .  A
N455       Mn463   2.226       .  S
N456        C464   1.355       .  A
N457        N459   1.318       .  A
N457        N458   1.323       .  A
N457       Mn475   2.218       .  S
N458        C465   1.353       .  A
N459        N460   1.323       .  A
N459       Mn463   2.218       .  S
N460        C465   1.354       .  A
N461        N462   1.323       .  A
N461       Mn475   2.215       .  S
N462        C464   1.353       .  A
Mn463      Cl476   2.563       .  S
C464        C559   1.451       .  S
C465        C499   1.448       .  S
N466        N467   1.323       .  A
N466        N472   1.318       .  A
N466       Mn474   2.216       .  S
N467        C477   1.353       .  A
N468        N469   1.324       .  A
N468        N470   1.318       .  A
N468       Mn475   2.219       .  S
N469        C478   1.353       .  A
N470        N471   1.324       .  A
N470       Mn474   2.225       .  S
N471        C478   1.354       .  A
N472        N473   1.322       .  A
N472       Mn475   2.212       .  S
N473        C477   1.352       .  A
Mn474      Cl476   2.562       .  S
Mn475      Cl476   2.558       .  S
C477        C523   1.445       .  S
C478        C506   1.452       .  S
C479        C480   1.216       .  T
C480        C481   1.429       .  S
C481        C482   1.216       .  T
C483        C484   1.212       .  T
C484        C485   1.422       .  S
C485        C486   1.212       .  T
C487        C488   1.216       .  T
C488        C489   1.429       .  S
C489        C490   1.216       .  T
C491        C492   1.212       .  T
C492        C493   1.422       .  S
C493        C494   1.212       .  T
C495        C496   1.215       .  T
C496        C497   1.428       .  S
C497        C498   1.216       .  T
C499        C500   1.213       .  T
C500        C501   1.424       .  S
C501        C502   1.213       .  T
C503        C504   1.215       .  T
C504        C505   1.427       .  S
C505        C506   1.215       .  T
C507        C508   1.212       .  T
C508        C509   1.422       .  S
C509        C510   1.212       .  T
C511        C512   1.203       .  T
C513        C514   1.203       .  T
C515        C516   1.200       .  T
C517        C518   1.200       .  T
C519        C520   1.214       .  T
C520        C521   1.426       .  S
C521        C522   1.215       .  T
C523        C524   1.211       .  T
C524        C525   1.421       .  S
C525        C526   1.211       .  T
C527        C528   1.202       .  T
C529        C530   1.204       .  T
C531        C532   1.205       .  T
C533        C534   1.204       .  T
C535        C536   1.214       .  T
C536        C537   1.426       .  S
C537        C538   1.214       .  T
C539        C540   1.213       .  T
C540        C541   1.424       .  S
C541        C542   1.213       .  T
C543        C544   1.200       .  T
C545        C546   1.202       .  T
C547        C548   1.202       .  T
C549        C550   1.201       .  T
C551        C552   1.202       .  T
C553        C554   1.199       .  T
C555        C556   1.201       .  T
C557        C558   1.200       .  T
C559        C560   1.214       .  T
C560        C561   1.426       .  S
C561        C562   1.214       .  T
C563        C564   1.213       .  T
C564        C565   1.424       .  S
C565        C566   1.213       .  T
C567        C568   1.201       .  T
C569        C570   1.200       .  T
C571        C572   1.202       .  T
C573        C574   1.204       .  T
C575        C576   1.203       .  T
C577        C578   1.214       .  T
C578        C579   1.426       .  S
C579        C580   1.215       .  T
C581        C582   1.214       .  T
C582        C583   1.425       .  S
C583        C584   1.214       .  T
C585        C586   1.203       .  T
C587        C588   1.201       .  T
C589        C590   1.203       .  T
