geometry optimzed in LAMMPS
_audit_creation_date              2020-12-01 
_audit_creation_method            'lammps2cif' 
_symmetry_space_group_name_H-M    'P1' 
_symmetry_Int_Tables_number       1 
_symmetry_cell_setting            triclinic 
loop_ 
_symmetry_equiv_pos_as_xyz 
  x,y,z 
_cell_length_a                    38.63376782 
_cell_length_b                    38.63036646289505 
_cell_length_c                    36.693270073081614 
_cell_angle_alpha                 89.99658536280894 
_cell_angle_beta                  89.99267558491786 
_cell_angle_gamma                 120.00389188514616 
loop_ 
_atom_site_label 
_atom_site_type_symbol 
_atom_site_fract_x 
_atom_site_fract_y 
_atom_site_fract_z 
_atom_site_charge 
O1          O  0.29167350  0.15094374  0.06884488    -0.74900
O2          O  0.19242727  0.14808410  0.08967389    -0.75000
O3          O  0.24052265  0.16612291  0.03261706    -0.75000
O4          O  0.24160221  0.12607414  0.12462620    -0.75100
O5          O  0.27125906  0.18816691  0.14649596    -0.75000
O6          O  0.28244669  0.22981078  0.04560569    -0.75000
O7          O  0.22802149  0.21316945  0.10231782    -0.74900
O8          O  0.32464146  0.21300965  0.09137873    -0.75000
Ni9        Ni  0.24017524  0.14573163  0.07827347     1.25400
Ni10       Ni  0.27735771  0.21359849  0.09768521     1.25400
C11         C  0.32429059  0.18288295  0.07763868     0.87300
C12         C  0.19445404  0.18165373  0.09715645     0.87200
C13         C  0.26501444  0.20140440  0.02201660     0.87200
C14         C  0.25781491  0.14993214  0.15084781     0.87400
O15         O  0.19520559  0.15112138  0.93515322    -0.74900
O16         O  0.29162771  0.14832429  0.91430476    -0.75000
O17         O  0.26151059  0.16621441  0.97140749    -0.75000
O18         O  0.22046864  0.12637822  0.87935700    -0.75100
O19         O  0.25291978  0.18851586  0.85757580    -0.75000
O20         O  0.28327086  0.22992974  0.95853739    -0.75000
O21         O  0.32112654  0.21343952  0.90177598    -0.74900
O22         O  0.22433527  0.21324050  0.91272398    -0.75000
Ni23       Ni  0.24151122  0.14593591  0.92572303     1.25400
Ni24       Ni  0.27221116  0.21384729  0.90642442     1.25400
C25         C  0.19453364  0.18307432  0.92638327     0.87300
C26         C  0.32317453  0.18191191  0.90685635     0.87200
C27         C  0.27227313  0.20146257  0.98207382     0.87200
C28         C  0.22813013  0.15028883  0.85317480     0.87400
O29         O  0.06096196  0.21578406  0.06882340    -0.74900
O30         O  0.16016441  0.21854739  0.08965850    -0.75000
O31         O  0.11215168  0.20064775  0.03255546    -0.75000
O32         O  0.11097605  0.24054021  0.12461417    -0.75100
O33         O  0.08127232  0.17841371  0.14641908    -0.75000
O34         O  0.07015705  0.13695119  0.04546147    -0.75000
O35         O  0.12452777  0.15343883  0.10220937    -0.74900
O36         O  0.02795955  0.15368217  0.09129083    -0.75000
Ni37       Ni  0.11244813  0.22095413  0.07824454     1.25400
Ni38       Ni  0.07521473  0.15305627  0.09757473     1.25400
C39         C  0.02833331  0.18384395  0.07761083     0.87300
C40         C  0.15811180  0.18496041  0.09712140     0.87200
C41         C  0.08761695  0.16540482  0.02190888     0.87200
C42         C  0.09471230  0.21664454  0.15080717     0.87400
O43         O  0.15742135  0.21595688  0.93515922    -0.74900
O44         O  0.06102356  0.21878358  0.91433188    -0.75000
O45         O  0.09106711  0.20073578  0.97139558    -0.75000
O46         O  0.13223021  0.24082733  0.87937885    -0.75100
O47         O  0.09981172  0.17874376  0.85748968    -0.75000
O48         O  0.06935811  0.13706505  0.95837795    -0.75000
O49         O  0.03154905  0.15370206  0.90167640    -0.74900
O50         O  0.12835294  0.15390650  0.91259117    -0.75000
Ni51       Ni  0.11112627  0.22115041  0.92573406     1.25400
Ni52       Ni  0.08047085  0.15329441  0.90629782     1.25400
C53         C  0.15811447  0.18402752  0.92634689     0.87300
C54         C  0.02948721  0.18521134  0.90683745     0.87200
C55         C  0.08033008  0.16546161  0.98198006     0.87200
C56         C  0.12460913  0.21697879  0.85314875     0.87400
O57         O  0.20891395  0.16479339  0.73551391    -0.74900
O58         O  0.21174464  0.06839031  0.75637387    -0.75000
O59         O  0.19383319  0.09848774  0.69927238    -0.75000
O60         O  0.23367483  0.13956072  0.79131881    -0.75100
O61         O  0.17154284  0.10711376  0.81310340    -0.75000
O62         O  0.13011849  0.07668912  0.71216054    -0.75000
O63         O  0.14664004  0.03888382  0.76893201    -0.74900
O64         O  0.14679634  0.13565367  0.75793825    -0.75000
Ni65       Ni  0.21411620  0.11850029  0.74495342     1.25400
Ni66       Ni  0.14621102  0.08778775  0.76426394     1.25400
C67         C  0.17695652  0.16545602  0.74427078     0.87300
C68         C  0.17816632  0.03684106  0.76383024     0.87200
C69         C  0.15857758  0.08769522  0.68861697     0.87200
C70         C  0.20976490  0.13191167  0.81749984     0.87400
O71         O  0.20900988  0.06822869  0.60179124    -0.74900
O72         O  0.21184058  0.16746340  0.58096669    -0.75000
O73         O  0.19387501  0.11939597  0.63804055    -0.75000
O74         O  0.23380935  0.11826852  0.54599237    -0.75100
O75         O  0.17169646  0.08857754  0.52418298    -0.75000
O76         O  0.13017380  0.07747889  0.62510982    -0.75000
O77         O  0.14674973  0.13185704  0.56837045    -0.74900
O78         O  0.14691634  0.03524191  0.57933300    -0.75000
Ni79       Ni  0.21420867  0.11972178  0.59236267     1.25400
Ni80       Ni  0.14632367  0.08252275  0.57301624     1.25400
C81         C  0.17705917  0.03560408  0.59303505     0.87300
C82         C  0.17826733  0.16542949  0.57350474     0.87200
C83         C  0.15860485  0.09491839  0.64867204     0.87200
C84         C  0.20992311  0.10202270  0.51979739     0.87400
O85         O  0.14408806  0.20258124  0.73546689    -0.74900
O86         O  0.14129060  0.29899654  0.75633312    -0.75000
O87         O  0.15932105  0.26896314  0.69924708    -0.75000
O88         O  0.11922438  0.22777435  0.79125408    -0.75100
O89         O  0.18129666  0.26020823  0.81315388    -0.75000
O90         O  0.22297365  0.29060549  0.71225224    -0.75000
O91         O  0.20637331  0.32846223  0.76895317    -0.74900
O92         O  0.20611767  0.23163050  0.75806673    -0.75000
Ni93       Ni  0.13890646  0.24888749  0.74490580     1.25400
Ni94       Ni  0.20675241  0.27952448  0.76434131     1.25400
C95         C  0.17600245  0.20187525  0.74429818     0.87300
C96         C  0.17486486  0.33052865  0.76382424     0.87200
C97         C  0.19457853  0.27965395  0.68865448     0.87200
C98         C  0.14306219  0.23541401  0.81749224     0.87400
O99         O  0.14417070  0.29893055  0.60188429    -0.74900
O100        O  0.14138121  0.19971877  0.58101868    -0.75000
O101        O  0.15935487  0.24775202  0.63811731    -0.75000
O102        O  0.11934929  0.24889642  0.54609821    -0.75100
O103        O  0.18144248  0.27856613  0.52422782    -0.75000
O104        O  0.22302307  0.28977337  0.62514808    -0.75000
O105        O  0.20647499  0.23535413  0.56842445    -0.74900
O106        O  0.20622929  0.33192655  0.57932771    -0.75000
Ni107      Ni  0.13898962  0.24744023  0.59244984     1.25400
Ni108      Ni  0.20685645  0.28466926  0.57304927     1.25400
C109        C  0.17609283  0.33155688  0.59305848     0.87300
C110        C  0.17496024  0.20177045  0.57353495     0.87200
C111        C  0.19460149  0.27231460  0.64872986     0.87200
C112        C  0.14321113  0.26512748  0.51987551     0.87400
O113        O  0.06088679  0.20215825  0.26846856    -0.74900
O114        O  0.16013527  0.29856066  0.24764207    -0.75000
O115        O  0.11208051  0.26846068  0.30471577    -0.75000
O116        O  0.11093140  0.22738714  0.21268008    -0.75100
O117        O  0.08125778  0.25982460  0.19086478    -0.75000
O118        O  0.07018862  0.29027625  0.29180808    -0.75000
O119        O  0.12454613  0.32806319  0.23504570    -0.74900
O120        O  0.02792429  0.23129584  0.24601919    -0.75000
Ni121      Ni  0.11238807  0.24844881  0.25904246     1.25400
Ni122      Ni  0.07521181  0.27915984  0.23970160     1.25400
C123        C  0.02827288  0.20149700  0.25970333     0.87300
C124        C  0.15811109  0.33010873  0.24017937     0.87200
C125        C  0.08764013  0.27928794  0.31536632     0.87200
C126        C  0.09469586  0.23503308  0.18648131     0.87400
O127        O  0.15762640  0.29890403  0.40220921    -0.74900
O128        O  0.06124647  0.19964500  0.42304874    -0.75000
O129        O  0.09132656  0.24769966  0.36597852    -0.75000
O130        O  0.13242109  0.24886499  0.45800713    -0.75100
O131        O  0.09998978  0.27854093  0.47983385    -0.75000
O132        O  0.06951139  0.28959267  0.37889754    -0.75000
O133        O  0.03174432  0.23523316  0.43565889    -0.74900
O134        O  0.12849594  0.33187052  0.42467083    -0.75000
Ni135      Ni  0.11134812  0.24739875  0.41164670     1.25400
Ni136      Ni  0.08064018  0.28457590  0.43100019     1.25400
C137        C  0.15828617  0.33152197  0.41097115     0.87300
C138        C  0.02969787  0.20166884  0.43050704     0.87200
C139        C  0.08049633  0.27214020  0.35533416     0.87200
C140        C  0.12478684  0.26511024  0.48420933     0.87400
O141        O  0.29160904  0.16438014  0.26851110    -0.74900
O142        O  0.19240491  0.06794707  0.24767351    -0.75000
O143        O  0.24045290  0.09802052  0.30476079    -0.75000
O144        O  0.24157475  0.13914883  0.21272693    -0.75100
O145        O  0.27123185  0.10671191  0.19086450    -0.75000
O146        O  0.28246904  0.07637418  0.29177594    -0.75000
O147        O  0.22803064  0.03848087  0.23508253    -0.74900
O148        O  0.32459776  0.13531729  0.24594822    -0.75000
Ni149      Ni  0.24012463  0.11806506  0.25908723     1.25400
Ni150      Ni  0.27734475  0.08742116  0.23968544     1.25400
C151        C  0.32423181  0.16508189  0.25969002     0.87300
C152        C  0.19445184  0.03641516  0.24019787     0.87200
C153        C  0.26503103  0.08735099  0.31535942     0.87200
C154        C  0.25779936  0.13150778  0.18650842     0.87400
O155        O  0.19541111  0.06818483  0.40213724    -0.74900
O156        O  0.29186163  0.16738422  0.42296360    -0.75000
O157        O  0.26176488  0.11932969  0.36587049    -0.75000
O158        O  0.22066791  0.11823103  0.45791346    -0.75100
O159        O  0.25309183  0.08855680  0.47976278    -0.75000
O160        O  0.28340447  0.07730454  0.37884486    -0.75000
O161        O  0.32131052  0.13174048  0.43554519    -0.74900
O162        O  0.22446964  0.03518539  0.42468154    -0.75000
Ni163      Ni  0.24173651  0.11966914  0.41155016     1.25400
Ni164      Ni  0.27236768  0.08243294  0.43093843     1.25400
C165        C  0.19470440  0.03555661  0.41096033     0.87300
C166        C  0.32338429  0.16532611  0.43044986     0.87200
C167        C  0.27242799  0.09474612  0.35526622     0.87200
C168        C  0.22831197  0.10200559  0.48412814     0.87400
O169        O  0.29168063  0.48427402  0.06886076    -0.74900
O170        O  0.19243635  0.48141944  0.08968102    -0.75000
O171        O  0.24053578  0.49945422  0.03262671    -0.75000
O172        O  0.24160754  0.45941154  0.12464026    -0.75100
O173        O  0.27126406  0.52150614  0.14650616    -0.75000
O174        O  0.28245854  0.56314303  0.04561413    -0.75000
O175        O  0.22803059  0.54650568  0.10232182    -0.74900
O176        O  0.32464925  0.54634134  0.09139171    -0.75000
Ni177      Ni  0.24018380  0.47906507  0.07828521     1.25400
Ni178      Ni  0.27736636  0.54693333  0.09769378     1.25400
C179        C  0.32429762  0.51621327  0.07765349     0.87300
C180        C  0.19446291  0.51498907  0.09716170     0.87200
C181        C  0.26502788  0.53473625  0.02202598     0.87200
C182        C  0.25781839  0.48327188  0.15086074     0.87400
O183        O  0.19521990  0.48446011  0.93515978    -0.74900
O184        O  0.29164130  0.48165984  0.91431309    -0.75000
O185        O  0.26152195  0.49954705  0.97141609    -0.75000
O186        O  0.22048400  0.45971769  0.87936434    -0.75100
O187        O  0.25293607  0.52185628  0.85758532    -0.75000
O188        O  0.28328694  0.56326394  0.95854846    -0.75000
O189        O  0.32114133  0.54677546  0.90178542    -0.74900
O190        O  0.22435339  0.54658117  0.91273467    -0.75000
Ni191      Ni  0.24152474  0.47927237  0.92573076     1.25400
Ni192      Ni  0.27222767  0.54718510  0.90643489     1.25400
C193        C  0.19454980  0.51641443  0.92639072     0.87300
C194        C  0.32318820  0.51524658  0.90686461     0.87200
C195        C  0.27228633  0.53479469  0.98208363     0.87200
C196        C  0.22814590  0.48362952  0.85318321     0.87400
O197        O  0.06096797  0.54911625  0.06883831    -0.74900
O198        O  0.16017184  0.55188126  0.08966553    -0.75000
O199        O  0.11215778  0.53398671  0.03256371    -0.75000
O200        O  0.11098187  0.57386778  0.12462703    -0.75100
O201        O  0.08127470  0.51173952  0.14642758    -0.75000
O202        O  0.07017027  0.47028732  0.04546553    -0.75000
O203        O  0.12453717  0.48677242  0.10221592    -0.74900
O204        O  0.02796668  0.48701013  0.09129647    -0.75000
Ni205      Ni  0.11245448  0.55428705  0.07825557     1.25400
Ni206      Ni  0.07522305  0.48638706  0.09758063     1.25400
C207        C  0.02834020  0.51717450  0.07762296     0.87300
C208        C  0.15812073  0.51829502  0.09712736     0.87200
C209        C  0.08762832  0.49874361  0.02191469     0.87200
C210        C  0.09471347  0.54997005  0.15081763     0.87400
O211        O  0.15743774  0.54929810  0.93516215    -0.74900
O212        O  0.06103746  0.55212018  0.91433603    -0.75000
O213        O  0.09108471  0.53407588  0.97139945    -0.75000
O214        O  0.13224429  0.57416624  0.87938047    -0.75100
O215        O  0.09982504  0.51208231  0.85749259    -0.75000
O216        O  0.06937564  0.47040501  0.95838243    -0.75000
O217        O  0.03156363  0.48703832  0.90168228    -0.74900
O218        O  0.12837020  0.48724783  0.91259408    -0.75000
Ni219      Ni  0.11114177  0.55448973  0.92573699     1.25400
Ni220      Ni  0.08048689  0.48663360  0.90630184     1.25400
C221        C  0.15813116  0.51736857  0.92635091     0.87300
C222        C  0.02950145  0.51854776  0.90684366     0.87200
C223        C  0.08034649  0.49880124  0.98198444     0.87200
C224        C  0.12462174  0.55031761  0.85315033     0.87400
O225        O  0.20891756  0.49812821  0.73552016    -0.74900
O226        O  0.21174867  0.40172675  0.75638264    -0.75000
O227        O  0.19382863  0.43181755  0.69928457    -0.75000
O228        O  0.23368471  0.47290085  0.79132543    -0.75100
O229        O  0.17155553  0.44045441  0.81311666    -0.75000
O230        O  0.13011627  0.41002334  0.71217987    -0.75000
O231        O  0.14664536  0.37222109  0.76894629    -0.74900
O232        O  0.14680418  0.46899277  0.75795409    -0.75000
Ni233      Ni  0.21411942  0.45183573  0.74496214     1.25400
Ni234      Ni  0.14621713  0.42112594  0.76428045     1.25400
C235        C  0.17696114  0.49879187  0.74427934     0.87300
C236        C  0.17816964  0.37017705  0.76383778     0.87200
C237        C  0.15857201  0.42102462  0.68863312     0.87200
C238        C  0.20977792  0.46525292  0.81750917     0.87400
O239        O  0.20899806  0.40155513  0.60180083    -0.74900
O240        O  0.21181762  0.50078513  0.58097916    -0.75000
O241        O  0.19386196  0.45272085  0.63805367    -0.75000
O242        O  0.23378851  0.45159551  0.54600388    -0.75100
O243        O  0.17167367  0.42190099  0.52419843    -0.75000
O244        O  0.13015990  0.41080060  0.62512889    -0.75000
O245        O  0.14672557  0.46517552  0.56838861    -0.74900
O246        O  0.14690224  0.36856543  0.57934805    -0.75000
Ni247      Ni  0.21419137  0.45304673  0.59237472     1.25400
Ni248      Ni  0.14630464  0.41584394  0.57303381     1.25400
C249        C  0.17704893  0.36892985  0.59304448     0.87300
C250        C  0.17824340  0.49874911  0.57351724     0.87200
C251        C  0.15859295  0.42824281  0.64868834     0.87200
C252        C  0.20990118  0.43535075  0.51981035     0.87400
O253        O  0.14408892  0.53591217  0.73546985    -0.74900
O254        O  0.14128738  0.63232693  0.75632775    -0.75000
O255        O  0.15931160  0.60228654  0.69924295    -0.75000
O256        O  0.11922918  0.56110979  0.79125596    -0.75100
O257        O  0.18130437  0.59354699  0.81314848    -0.75000
O258        O  0.22296767  0.62393906  0.71224061    -0.75000
O259        O  0.20637139  0.66179651  0.76894331    -0.74900
O260        O  0.20612325  0.56496948  0.75805959    -0.75000
Ni261      Ni  0.13890471  0.58221744  0.74490474     1.25400
Ni262      Ni  0.20675388  0.61286113  0.76433237     1.25400
C263        C  0.17600626  0.53521042  0.74429898     0.87300
C264        C  0.17486167  0.66386062  0.76381577     0.87200
C265        C  0.19456830  0.61298205  0.68864584     0.87200
C266        C  0.14307033  0.56875185  0.81749141     0.87400
O267        O  0.14416442  0.63226771  0.60186016    -0.74900
O268        O  0.14136083  0.53304422  0.58101994    -0.75000
O269        O  0.15933791  0.58109208  0.63810762    -0.75000
O270        O  0.11933727  0.58222130  0.54608336    -0.75100
O271        O  0.18143096  0.61188828  0.52421451    -0.75000
O272        O  0.22300981  0.62309621  0.62513697    -0.75000
O273        O  0.20645344  0.56867123  0.56841841    -0.74900
O274        O  0.20622649  0.66525315  0.57931024    -0.75000
Ni275      Ni  0.13897576  0.58077234  0.59243766     1.25400
Ni276      Ni  0.20684379  0.61799063  0.57303724     1.25400
C277        C  0.17609128  0.66489021  0.59303563     0.87300
C278        C  0.17493777  0.53509069  0.57353742     0.87200
C279        C  0.19458778  0.60564671  0.64871955     0.87200
C280        C  0.14320053  0.59845296  0.51986124     0.87400
O281        O  0.06087541  0.53551036  0.26849098    -0.74900
O282        O  0.16012780  0.63189557  0.24763645    -0.75000
O283        O  0.11208091  0.60182737  0.30471712    -0.75000
O284        O  0.11091367  0.56070983  0.21269615    -0.75100
O285        O  0.08125589  0.59315577  0.19086468    -0.75000
O286        O  0.07017911  0.62362738  0.29179871    -0.75000
O287        O  0.12454385  0.66140265  0.23503622    -0.74900
O288        O  0.02791659  0.56464078  0.24601689    -0.75000
Ni289      Ni  0.11237847  0.58179250  0.25905143     1.25400
Ni290      Ni  0.07520654  0.61250188  0.23969527     1.25400
C291        C  0.02826252  0.53484764  0.25971683     0.87300
C292        C  0.15810754  0.66344453  0.24016985     0.87200
C293        C  0.08763343  0.61264762  0.31536209     0.87200
C294        C  0.09468811  0.56835810  0.18649042     0.87400
O295        O  0.15760939  0.63223332  0.40218835    -0.74900
O296        O  0.06122091  0.53299027  0.42304664    -0.75000
O297        O  0.09129187  0.58103657  0.36596983    -0.75000
O298        O  0.13240636  0.58219912  0.45799021    -0.75100
O299        O  0.09998513  0.61188155  0.47982600    -0.75000
O300        O  0.06950662  0.62295231  0.37889460    -0.75000
O301        O  0.03173101  0.56858986  0.43565676    -0.74900
O302        O  0.12850041  0.66521409  0.42466468    -0.75000
Ni303      Ni  0.11132446  0.58073494  0.41163394     1.25400
Ni304      Ni  0.08063586  0.61792691  0.43099569     1.25400
C305        C  0.15828290  0.66485632  0.41095693     0.87300
C306        C  0.02967747  0.53502140  0.43050971     0.87200
C307        C  0.08047823  0.60549102  0.35532836     0.87200
C308        C  0.12477711  0.59844409  0.48419657     0.87400
O309        O  0.29159782  0.49772993  0.26852377    -0.74900
O310        O  0.19239993  0.40128924  0.24768462    -0.75000
O311        O  0.24044392  0.43137133  0.30477532    -0.75000
O312        O  0.24156798  0.47248946  0.21273698    -0.75100
O313        O  0.27123538  0.44005850  0.19088358    -0.75000
O314        O  0.28246019  0.40972303  0.29179652    -0.75000
O315        O  0.22803116  0.37182788  0.23509746    -0.74900
O316        O  0.32459156  0.46866662  0.24597343    -0.75000
Ni317      Ni  0.24011609  0.45141065  0.25909942     1.25400
Ni318      Ni  0.27734214  0.42076940  0.23970608     1.25400
C319        C  0.32422236  0.49843193  0.25970832     0.87300
C320        C  0.19445042  0.36975952  0.24020718     0.87200
C321        C  0.26502194  0.42070283  0.31537668     0.87200
C322        C  0.25779926  0.46485034  0.18652273     0.87400
O323        O  0.19539966  0.40152477  0.40214580    -0.74900
O324        O  0.29183756  0.50073292  0.42298037    -0.75000
O325        O  0.26175160  0.45268049  0.36588617    -0.75000
O326        O  0.22064326  0.45156464  0.45792744    -0.75100
O327        O  0.25307560  0.42189815  0.47977510    -0.75000
O328        O  0.28339787  0.41066033  0.37886001    -0.75000
O329        O  0.32129337  0.46509534  0.43556071    -0.74900
O330        O  0.22446375  0.36853088  0.42469083    -0.75000
Ni331      Ni  0.24171752  0.45301229  0.41156445     1.25400
Ni332      Ni  0.27235650  0.41578286  0.43095195     1.25400
C333        C  0.19469797  0.36889861  0.41096533     0.87300
C334        C  0.32336323  0.49867878  0.43046329     0.87200
C335        C  0.27241826  0.42809947  0.35528209     0.87200
C336        C  0.22828975  0.43533964  0.48414060     0.87400
O337        O  0.29167525  0.81760907  0.06887399    -0.74900
O338        O  0.19242954  0.81475365  0.08968321    -0.75000
O339        O  0.24053132  0.83278162  0.03263127    -0.75000
O340        O  0.24160105  0.79275203  0.12465066    -0.75100
O341        O  0.27126080  0.85484872  0.14651142    -0.75000
O342        O  0.28244641  0.89647362  0.04561372    -0.75000
O343        O  0.22802180  0.87984035  0.10232271    -0.74900
O344        O  0.32464247  0.87968106  0.09139483    -0.75000
Ni345      Ni  0.24017807  0.81239959  0.07829316     1.25400
Ni346      Ni  0.27735839  0.88027037  0.09769568     1.25400
C347        C  0.32429178  0.84955129  0.07766361     0.87300
C348        C  0.19445499  0.84832309  0.09716181     0.87200
C349        C  0.26501759  0.86806341  0.02202762     0.87200
C350        C  0.25781599  0.81661461  0.15086862     0.87400
O351        O  0.19520174  0.81778320  0.93516000    -0.74900
O352        O  0.29162555  0.81498792  0.91431220    -0.75000
O353        O  0.26150411  0.83287240  0.97141597    -0.75000
O354        O  0.22046751  0.79304343  0.87936265    -0.75100
O355        O  0.25291886  0.85518245  0.85758484    -0.75000
O356        O  0.28326913  0.89658941  0.95854883    -0.75000
O357        O  0.32112444  0.88010364  0.90178552    -0.74900
O358        O  0.22433365  0.87990439  0.91273558    -0.75000
Ni359      Ni  0.24150784  0.81259805  0.92572994     1.25400
Ni360      Ni  0.27220936  0.88051084  0.90643506     1.25400
C361        C  0.19453124  0.84973818  0.92639231     0.87300
C362        C  0.32317248  0.84857599  0.90686465     0.87200
C363        C  0.27227035  0.86812090  0.98208389     0.87200
C364        C  0.22813005  0.81695574  0.85318132     0.87400
O365        O  0.06096125  0.88245512  0.06885089    -0.74900
O366        O  0.16016381  0.88521460  0.08966480    -0.75000
O367        O  0.11214234  0.86732319  0.03256712    -0.75000
O368        O  0.11097979  0.90720054  0.12463596    -0.75100
O369        O  0.08127258  0.84507045  0.14643276    -0.75000
O370        O  0.07015800  0.80362290  0.04546980    -0.75000
O371        O  0.12452937  0.82010542  0.10221428    -0.74900
O372        O  0.02796029  0.82034752  0.09130612    -0.75000
Ni373      Ni  0.11244653  0.88762258  0.07826160     1.25400
Ni374      Ni  0.07521580  0.81972142  0.09758469     1.25400
C375        C  0.02833357  0.85051229  0.07763510     0.87300
C376        C  0.15811265  0.85162825  0.09712584     0.87200
C377        C  0.08761332  0.83207954  0.02191890     0.87200
C378        C  0.09471340  0.88330071  0.15082568     0.87400
O379        O  0.15742031  0.88262305  0.93516583    -0.74900
O380        O  0.06102216  0.88544956  0.91433680    -0.75000
O381        O  0.09106845  0.86740813  0.97140235    -0.75000
O382        O  0.13222837  0.90749024  0.87938334    -0.75100
O383        O  0.09980803  0.84540548  0.85749739    -0.75000
O384        O  0.06935713  0.80373588  0.95838926    -0.75000
O385        O  0.03154685  0.82036694  0.90168603    -0.74900
O386        O  0.12835007  0.82057108  0.91260148    -0.75000
Ni387      Ni  0.11112561  0.88781732  0.92573950     1.25400
Ni388      Ni  0.08046845  0.81995980  0.90630775     1.25400
C389        C  0.15811202  0.85069171  0.92635556     0.87300
C390        C  0.02948529  0.85187648  0.90684503     0.87200
C391        C  0.08032941  0.83213395  0.98198933     0.87200
C392        C  0.12460589  0.88364053  0.85315444     0.87400
O393        O  0.20891936  0.83146361  0.73551963    -0.74900
O394        O  0.21174580  0.73505869  0.75637640    -0.75000
O395        O  0.19383749  0.76515863  0.69927793    -0.75000
O396        O  0.23367722  0.80622861  0.79132506    -0.75100
O397        O  0.17154438  0.77378214  0.81310748    -0.75000
O398        O  0.13012209  0.74335885  0.71216363    -0.75000
O399        O  0.14664090  0.70555196  0.76893341    -0.74900
O400        O  0.14680077  0.80232363  0.75794183    -0.75000
Ni401      Ni  0.21411941  0.78516965  0.74495884     1.25400
Ni402      Ni  0.14621356  0.75445699  0.76426722     1.25400
C403        C  0.17696117  0.83212581  0.74427541     0.87300
C404        C  0.17816582  0.70350853  0.76382822     0.87200
C405        C  0.15858202  0.75436398  0.68862107     0.87200
C406        C  0.20976611  0.79857968  0.81750552     0.87400
O407        O  0.20901014  0.73488902  0.60177599    -0.74900
O408        O  0.21184269  0.83413003  0.58097841    -0.75000
O409        O  0.19388202  0.78605074  0.63804245    -0.75000
O410        O  0.23380638  0.78494070  0.54598776    -0.75100
O411        O  0.17169107  0.75524673  0.52418367    -0.75000
O412        O  0.13017668  0.74414812  0.62511398    -0.75000
O413        O  0.14675240  0.79852809  0.56837830    -0.74900
O414        O  0.14691084  0.70190911  0.57933001    -0.75000
Ni415      Ni  0.21421025  0.78638520  0.59236120     1.25400
Ni416      Ni  0.14632275  0.74919233  0.57301914     1.25400
C417        C  0.17705639  0.70226731  0.59302131     0.87300
C418        C  0.17827067  0.83209887  0.57351710     0.87200
C419        C  0.15860994  0.76158126  0.64867512     0.87200
C420        C  0.20991778  0.76869293  0.51979535     0.87400
O421        O  0.14409294  0.86924969  0.73546946    -0.74900
O422        O  0.14128834  0.96565940  0.75633884    -0.75000
O423        O  0.15932554  0.93563428  0.69925516    -0.75000
O424        O  0.11922284  0.89443465  0.79125787    -0.75100
O425        O  0.18129361  0.92687213  0.81316070    -0.75000
O426        O  0.22297750  0.95727552  0.71226163    -0.75000
O427        O  0.20637109  0.99512817  0.76895973    -0.74900
O428        O  0.20612043  0.89829892  0.75807441    -0.75000
Ni429      Ni  0.13890786  0.91555285  0.74491101     1.25400
Ni430      Ni  0.20675273  0.94619151  0.76434951     1.25400
C431        C  0.17600751  0.86854458  0.74430284     0.87300
C432        C  0.17486182  0.99719290  0.76382646     0.87200
C433        C  0.19458314  0.94632621  0.68866324     0.87200
C434        C  0.14305916  0.90207508  0.81749723     0.87400
O435        O  0.14417689  0.96560533  0.60188429    -0.74900
O436        O  0.14138645  0.86638983  0.58103362    -0.75000
O437        O  0.15935931  0.91442996  0.63812581    -0.75000
O438        O  0.11935478  0.91556285  0.54610564    -0.75100
O439        O  0.18144833  0.94523201  0.52423585    -0.75000
O440        O  0.22302898  0.95644544  0.62515689    -0.75000
O441        O  0.20647987  0.90202299  0.56843704    -0.74900
O442        O  0.20623726  0.99859672  0.57933123    -0.75000
Ni443      Ni  0.13899508  0.91411296  0.59245783     1.25400
Ni444      Ni  0.20686256  0.95133842  0.57305773     1.25400
C445        C  0.17610076  0.99823006  0.59305655     0.87300
C446        C  0.17496466  0.86844009  0.57354953     0.87200
C447        C  0.19460703  0.93898973  0.64873845     0.87200
C448        C  0.14321723  0.93179284  0.51988287     0.87400
O449        O  0.06088826  0.86882276  0.26849664    -0.74900
O450        O  0.16013524  0.96521831  0.24764874    -0.75000
O451        O  0.11208880  0.93513346  0.30473096    -0.75000
O452        O  0.11092499  0.89403779  0.21270106    -0.75100
O453        O  0.08125498  0.92647720  0.19088186    -0.75000
O454        O  0.07019150  0.95694160  0.29182054    -0.75000
O455        O  0.12454592  0.99472068  0.23505249    -0.74900
O456        O  0.02792531  0.89795683  0.24604029    -0.75000
Ni457      Ni  0.11238897  0.91511010  0.25906055     1.25400
Ni458      Ni  0.07521194  0.94581878  0.23971583     1.25400
C459        C  0.02827423  0.86816086  0.25973075     0.87300
C460        C  0.15811124  0.99676547  0.24018103     0.87200
C461        C  0.08764478  0.94595642  0.31537982     0.87200
C462        C  0.09469222  0.90168479  0.18650058     0.87400
O463        O  0.15762450  0.96556235  0.40221161    -0.74900
O464        O  0.06124682  0.86630712  0.42306405    -0.75000
O465        O  0.09131810  0.91435701  0.36598966    -0.75000
O466        O  0.13242545  0.91552956  0.45801466    -0.75100
O467        O  0.09999513  0.94520557  0.47984388    -0.75000
O468        O  0.06951435  0.95625893  0.37891030    -0.75000
O469        O  0.03174684  0.90189771  0.43567218    -0.74900
O470        O  0.12850300  0.99853465  0.42467972    -0.75000
Ni471      Ni  0.11134663  0.91405940  0.41165593     1.25400
Ni472      Ni  0.08064447  0.95124092  0.43101180     1.25400
C473        C  0.15828885  0.99818285  0.41097385     0.87300
C474        C  0.02969919  0.86833219  0.43052216     0.87200
C475        C  0.08049476  0.93880354  0.35534635     0.87200
C476        C  0.12479226  0.93177529  0.48421781     0.87400
O477        O  0.29161154  0.83104458  0.26854309    -0.74900
O478        O  0.19240518  0.73462446  0.24767859    -0.75000
O479        O  0.24044448  0.76467286  0.30477456    -0.75000
O480        O  0.24158579  0.80583629  0.21275139    -0.75100
O481        O  0.27123398  0.77339412  0.19088055    -0.75000
O482        O  0.28246682  0.74303592  0.29178325    -0.75000
O483        O  0.22802826  0.70515595  0.23508517    -0.74900
O484        O  0.32459797  0.80198533  0.24596656    -0.75000
Ni485      Ni  0.24012611  0.78473583  0.25910666     1.25400
Ni486      Ni  0.27734409  0.75409286  0.23969616     1.25400
C487        C  0.32423348  0.83174665  0.25971792     0.87300
C488        C  0.19444984  0.70309288  0.24019660     0.87200
C489        C  0.26502791  0.75400798  0.31536942     0.87200
C490        C  0.25780549  0.79819370  0.18652954     0.87400
O491        O  0.19541785  0.73485748  0.40212454    -0.74900
O492        O  0.29186397  0.83405013  0.42297636    -0.75000
O493        O  0.26178588  0.78600595  0.36587588    -0.75000
O494        O  0.22066055  0.78489341  0.45790936    -0.75100
O495        O  0.25308462  0.75522232  0.47976599    -0.75000
O496        O  0.28340225  0.74396297  0.37885380    -0.75000
O497        O  0.32130879  0.79840184  0.43555450    -0.74900
O498        O  0.22446106  0.70184998  0.42468424    -0.75000
Ni499      Ni  0.24174218  0.78633840  0.41155040     1.25400
Ni500      Ni  0.27236283  0.74909501  0.43094511     1.25400
C501        C  0.19470275  0.70222652  0.41095091     0.87300
C502        C  0.32338514  0.83198916  0.43046320     0.87200
C503        C  0.27243522  0.76141165  0.35527367     0.87200
C504        C  0.22830400  0.76867099  0.48412676     0.87400
O505        O  0.62500699  0.15094374  0.06884493    -0.74900
O506        O  0.52576080  0.14808428  0.08967385    -0.75000
O507        O  0.57385611  0.16612290  0.03261706    -0.75000
O508        O  0.57493561  0.12607410  0.12462618    -0.75100
O509        O  0.60459249  0.18816688  0.14649594    -0.75000
O510        O  0.61578011  0.22981077  0.04560569    -0.75000
O511        O  0.56135514  0.21316960  0.10231791    -0.74900
O512        O  0.65797496  0.21300973  0.09137865    -0.75000
Ni513      Ni  0.57350870  0.14573161  0.07827346     1.25400
Ni514      Ni  0.61069117  0.21359850  0.09768519     1.25400
C515        C  0.65762399  0.18288290  0.07763866     0.87300
C516        C  0.52778715  0.18165311  0.09715634     0.87200
C517        C  0.59834791  0.20140438  0.02201660     0.87200
C518        C  0.59114835  0.14993227  0.15084785     0.87400
O519        O  0.52853896  0.15112139  0.93515328    -0.74900
O520        O  0.62496104  0.14832426  0.91430470    -0.75000
O521        O  0.59484389  0.16621441  0.97140746    -0.75000
O522        O  0.55380194  0.12637828  0.87935700    -0.75100
O523        O  0.58625330  0.18851588  0.85757578    -0.75000
O524        O  0.61660435  0.22992978  0.95853739    -0.75000
O525        O  0.65445993  0.21343952  0.90177599    -0.74900
O526        O  0.55766867  0.21324048  0.91272396    -0.75000
Ni527      Ni  0.57484457  0.14593592  0.92572303     1.25400
Ni528      Ni  0.60554459  0.21384728  0.90642442     1.25400
C529        C  0.52786692  0.18307438  0.92638329     0.87300
C530        C  0.65650792  0.18191186  0.90685628     0.87200
C531        C  0.60560648  0.20146257  0.98207381     0.87200
C532        C  0.56146335  0.15028869  0.85317485     0.87400
O533        O  0.39429528  0.21578401  0.06882336    -0.74900
O534        O  0.49349779  0.21854731  0.08965858    -0.75000
O535        O  0.44548500  0.20064780  0.03255544    -0.75000
O536        O  0.44430927  0.24054017  0.12461414    -0.75100
O537        O  0.41460573  0.17841369  0.14641907    -0.75000
O538        O  0.40349050  0.13695120  0.04546146    -0.75000
O539        O  0.45786116  0.15343874  0.10220943    -0.74900
O540        O  0.36129296  0.15368213  0.09129077    -0.75000
Ni541      Ni  0.44578145  0.22095413  0.07824455     1.25400
Ni542      Ni  0.40854818  0.15305626  0.09757472     1.25400
C543        C  0.36166667  0.18384392  0.07761081     0.87300
C544        C  0.49144566  0.18496113  0.09712134     0.87200
C545        C  0.42095039  0.16540482  0.02190886     0.87200
C546        C  0.42804560  0.21664450  0.15080716     0.87400
O547        O  0.49075460  0.21595689  0.93515925    -0.74900
O548        O  0.39435692  0.21878359  0.91433184    -0.75000
O549        O  0.42440042  0.20073581  0.97139560    -0.75000
O550        O  0.46556350  0.24082728  0.87937884    -0.75100
O551        O  0.43314502  0.17874371  0.85748970    -0.75000
O552        O  0.40269143  0.13706508  0.95837796    -0.75000
O553        O  0.36488231  0.15370208  0.90167635    -0.74900
O554        O  0.46168627  0.15390648  0.91259121    -0.75000
Ni555      Ni  0.44445959  0.22115039  0.92573406     1.25400
Ni556      Ni  0.41380417  0.15329440  0.90629783     1.25400
C557        C  0.49144787  0.18402751  0.92634689     0.87300
C558        C  0.36282060  0.18521133  0.90683739     0.87200
C559        C  0.41366335  0.16546161  0.98198008     0.87200
C560        C  0.45794251  0.21697885  0.85314881     0.87400
O561        O  0.54224747  0.16479345  0.73551391    -0.74900
O562        O  0.54507806  0.06839034  0.75637388    -0.75000
O563        O  0.52716649  0.09848769  0.69927238    -0.75000
O564        O  0.56700823  0.13956070  0.79131884    -0.75100
O565        O  0.50487620  0.10711378  0.81310335    -0.75000
O566        O  0.46345184  0.07668919  0.71216056    -0.75000
O567        O  0.47997345  0.03888382  0.76893195    -0.74900
O568        O  0.48012985  0.13565371  0.75793825    -0.75000
Ni569      Ni  0.54744955  0.11850028  0.74495343     1.25400
Ni570      Ni  0.47954437  0.08778775  0.76426394     1.25400
C571        C  0.51028976  0.16545598  0.74427084     0.87300
C572        C  0.51149941  0.03684095  0.76383026     0.87200
C573        C  0.49191089  0.08769522  0.68861698     0.87200
C574        C  0.54309844  0.13191177  0.81749978     0.87400
O575        O  0.54234309  0.06822870  0.60179124    -0.74900
O576        O  0.54517387  0.16746337  0.58096671    -0.75000
O577        O  0.52720831  0.11939597  0.63804055    -0.75000
O578        O  0.56714263  0.11826850  0.54599232    -0.75100
O579        O  0.50502973  0.08857751  0.52418298    -0.75000
O580        O  0.46350710  0.07747891  0.62510984    -0.75000
O581        O  0.48008301  0.13185706  0.56837045    -0.74900
O582        O  0.48024957  0.03524189  0.57933301    -0.75000
Ni583      Ni  0.54754196  0.11972178  0.59236266     1.25400
Ni584      Ni  0.47965698  0.08252277  0.57301626     1.25400
C585        C  0.51039257  0.03560413  0.59303509     0.87300
C586        C  0.51160098  0.16542963  0.57350475     0.87200
C587        C  0.49193816  0.09491841  0.64867205     0.87200
C588        C  0.54325641  0.10202272  0.51979739     0.87400
O589        O  0.47742142  0.20258131  0.73546692    -0.74900
O590        O  0.47462399  0.29899661  0.75633312    -0.75000
O591        O  0.49265442  0.26896317  0.69924702    -0.75000
O592        O  0.45255777  0.22777437  0.79125412    -0.75100
O593        O  0.51463003  0.26020824  0.81315390    -0.75000
O594        O  0.55630702  0.29060558  0.71225229    -0.75000
O595        O  0.53970670  0.32846219  0.76895320    -0.74900
O596        O  0.53945106  0.23163047  0.75806669    -0.75000
Ni597      Ni  0.47223980  0.24888754  0.74490583     1.25400
Ni598      Ni  0.54008577  0.27952446  0.76434131     1.25400
C599        C  0.50933602  0.20187536  0.74429821     0.87300
C600        C  0.50819797  0.33052856  0.76382421     0.87200
C601        C  0.52791132  0.27965382  0.68865443     0.87200
C602        C  0.47639546  0.23541395  0.81749222     0.87400
O603        O  0.47750422  0.29893052  0.60188429    -0.74900
O604        O  0.47471479  0.19971877  0.58101866    -0.75000
O605        O  0.49268816  0.24775191  0.63811725    -0.75000
O606        O  0.45268267  0.24889638  0.54609823    -0.75100
O607        O  0.51477585  0.27856610  0.52422783    -0.75000
O608        O  0.55635641  0.28977329  0.62514819    -0.75000
O609        O  0.53980857  0.23535426  0.56842446    -0.74900
O610        O  0.53956279  0.33192659  0.57932769    -0.75000
Ni611      Ni  0.47232304  0.24744015  0.59244982     1.25400
Ni612      Ni  0.54018987  0.28466927  0.57304930     1.25400
C613        C  0.50942632  0.33155688  0.59305851     0.87300
C614        C  0.50829348  0.20177035  0.57353499     0.87200
C615        C  0.52793539  0.27231490  0.64872986     0.87200
C616        C  0.47654462  0.26512753  0.51987546     0.87400
O617        O  0.39422027  0.20215823  0.26846856    -0.74900
O618        O  0.49346878  0.29856060  0.24764208    -0.75000
O619        O  0.44541395  0.26846070  0.30471579    -0.75000
O620        O  0.44426485  0.22738716  0.21268004    -0.75100
O621        O  0.41459123  0.25982463  0.19086478    -0.75000
O622        O  0.40352207  0.29027628  0.29180806    -0.75000
O623        O  0.45787966  0.32806315  0.23504571    -0.74900
O624        O  0.36125777  0.23129581  0.24601920    -0.75000
Ni625      Ni  0.44572149  0.24844884  0.25904243     1.25400
Ni626      Ni  0.40854524  0.27915989  0.23970157     1.25400
C627        C  0.36160609  0.20149714  0.25970325     0.87300
C628        C  0.49144419  0.33010887  0.24017930     0.87200
C629        C  0.42097353  0.27928795  0.31536632     0.87200
C630        C  0.42802925  0.23503307  0.18648130     0.87400
O631        O  0.49095973  0.29890405  0.40220916    -0.74900
O632        O  0.39457982  0.19964499  0.42304870    -0.75000
O633        O  0.42465982  0.24769959  0.36597852    -0.75000
O634        O  0.46575445  0.24886497  0.45800712    -0.75100
O635        O  0.43332322  0.27854100  0.47983388    -0.75000
O636        O  0.40284479  0.28959272  0.37889756    -0.75000
O637        O  0.36507767  0.23523315  0.43565893    -0.74900
O638        O  0.46182931  0.33187055  0.42467087    -0.75000
Ni639      Ni  0.44468145  0.24739874  0.41164667     1.25400
Ni640      Ni  0.41397354  0.28457594  0.43100024     1.25400
C641        C  0.49161949  0.33152200  0.41097113     0.87300
C642        C  0.36303140  0.20166872  0.43050703     0.87200
C643        C  0.41382966  0.27214017  0.35533417     0.87200
C644        C  0.45812017  0.26511028  0.48420937     0.87400
O645        O  0.62494241  0.16438017  0.26851110    -0.74900
O646        O  0.52573832  0.06794721  0.24767357    -0.75000
O647        O  0.57378626  0.09802059  0.30476078    -0.75000
O648        O  0.57490816  0.13914882  0.21272694    -0.75100
O649        O  0.60456518  0.10671185  0.19086447    -0.75000
O650        O  0.61580236  0.07637415  0.29177597    -0.75000
O651        O  0.56136390  0.03848085  0.23508249    -0.74900
O652        O  0.65793112  0.13531730  0.24594825    -0.75000
Ni653      Ni  0.57345802  0.11806511  0.25908724     1.25400
Ni654      Ni  0.61067808  0.08742110  0.23968545     1.25400
C655        C  0.65756516  0.16508193  0.25969003     0.87300
C656        C  0.52778523  0.03641507  0.24019783     0.87200
C657        C  0.59836449  0.08735096  0.31535942     0.87200
C658        C  0.59113283  0.13150769  0.18650838     0.87400
O659        O  0.52874444  0.06818477  0.40213723    -0.74900
O660        O  0.62519488  0.16738424  0.42296358    -0.75000
O661        O  0.59509821  0.11932962  0.36587047    -0.75000
O662        O  0.55400121  0.11823104  0.45791344    -0.75100
O663        O  0.58642511  0.08855682  0.47976288    -0.75000
O664        O  0.61673784  0.07730452  0.37884491    -0.75000
O665        O  0.65464381  0.13174054  0.43554519    -0.74900
O666        O  0.55780306  0.03518541  0.42468154    -0.75000
Ni667      Ni  0.57506980  0.11966913  0.41155013     1.25400
Ni668      Ni  0.60570101  0.08243296  0.43093848     1.25400
C669        C  0.52803758  0.03555672  0.41096022     0.87300
C670        C  0.65671756  0.16532610  0.43044984     0.87200
C671        C  0.60576128  0.09474621  0.35526621     0.87200
C672        C  0.56164523  0.10200561  0.48412811     0.87400
O673        O  0.62501399  0.48427400  0.06886077    -0.74900
O674        O  0.52576961  0.48141943  0.08968103    -0.75000
O675        O  0.57386912  0.49945432  0.03262667    -0.75000
O676        O  0.57494082  0.45941154  0.12464026    -0.75100
O677        O  0.60459734  0.52150614  0.14650616    -0.75000
O678        O  0.61579187  0.56314311  0.04561418    -0.75000
O679        O  0.56136384  0.54650566  0.10232181    -0.74900
O680        O  0.65798259  0.54634132  0.09139171    -0.75000
Ni681      Ni  0.57351710  0.47906506  0.07828522     1.25400
Ni682      Ni  0.61069965  0.54693332  0.09769377     1.25400
C683        C  0.65763100  0.51621332  0.07765351     0.87300
C684        C  0.52779627  0.51498913  0.09716171     0.87200
C685        C  0.59836088  0.53473583  0.02202596     0.87200
C686        C  0.59115166  0.48327187  0.15086074     0.87400
O687        O  0.52855328  0.48446007  0.93515970    -0.74900
O688        O  0.62497472  0.48165985  0.91431314    -0.75000
O689        O  0.59485534  0.49954700  0.97141610    -0.75000
O690        O  0.55381748  0.45971772  0.87936429    -0.75100
O691        O  0.58626937  0.52185632  0.85758530    -0.75000
O692        O  0.61662019  0.56326388  0.95854851    -0.75000
O693        O  0.65447463  0.54677542  0.90178541    -0.74900
O694        O  0.55768670  0.54658117  0.91273469    -0.75000
Ni695      Ni  0.57485815  0.47927239  0.92573076     1.25400
Ni696      Ni  0.60556094  0.54718509  0.90643490     1.25400
C697        C  0.52788314  0.51641440  0.92639070     0.87300
C698        C  0.65652149  0.51524662  0.90686459     0.87200
C699        C  0.60561983  0.53479513  0.98208360     0.87200
C700        C  0.56147937  0.48362960  0.85318318     0.87400
O701        O  0.39430125  0.54911629  0.06883833    -0.74900
O702        O  0.49350510  0.55188126  0.08966551    -0.75000
O703        O  0.44549112  0.53398676  0.03256369    -0.75000
O704        O  0.44431519  0.57386780  0.12462709    -0.75100
O705        O  0.41460796  0.51173949  0.14642757    -0.75000
O706        O  0.40350359  0.47028736  0.04546552    -0.75000
O707        O  0.45787046  0.48677243  0.10221596    -0.74900
O708        O  0.36129997  0.48701012  0.09129643    -0.75000
Ni709      Ni  0.44578776  0.55428709  0.07825559     1.25400
Ni710      Ni  0.40855632  0.48638703  0.09758064     1.25400
C711        C  0.36167332  0.51717443  0.07762294     0.87300
C712        C  0.49145386  0.51829496  0.09712737     0.87200
C713        C  0.42096165  0.49874359  0.02191468     0.87200
C714        C  0.42804660  0.54996995  0.15081768     0.87400
O715        O  0.49077106  0.54929808  0.93516213    -0.74900
O716        O  0.39437077  0.55212014  0.91433604    -0.75000
O717        O  0.42441801  0.53407588  0.97139946    -0.75000
O718        O  0.46557759  0.57416629  0.87938048    -0.75100
O719        O  0.43315836  0.51208236  0.85749260    -0.75000
O720        O  0.40270895  0.47040501  0.95838243    -0.75000
O721        O  0.36489696  0.48703828  0.90168228    -0.74900
O722        O  0.46170350  0.48724781  0.91259407    -0.75000
Ni723      Ni  0.44447508  0.55448973  0.92573699     1.25400
Ni724      Ni  0.41382021  0.48663360  0.90630183     1.25400
C725        C  0.49146447  0.51736852  0.92635092     0.87300
C726        C  0.36283474  0.51854775  0.90684369     0.87200
C727        C  0.41367974  0.49880125  0.98198445     0.87200
C728        C  0.45795500  0.55031752  0.85315030     0.87400
O729        O  0.54225096  0.49812822  0.73552011    -0.74900
O730        O  0.54508203  0.40172673  0.75638263    -0.75000
O731        O  0.52716202  0.43181758  0.69928456    -0.75000
O732        O  0.56701815  0.47290094  0.79132538    -0.75100
O733        O  0.50488896  0.44045446  0.81311668    -0.75000
O734        O  0.46344961  0.41002329  0.71217986    -0.75000
O735        O  0.47997868  0.37222111  0.76894632    -0.74900
O736        O  0.48013757  0.46899277  0.75795412    -0.75000
Ni737      Ni  0.54745285  0.45183579  0.74496210     1.25400
Ni738      Ni  0.47955044  0.42112590  0.76428050     1.25400
C739        C  0.51029406  0.49879168  0.74427943     0.87300
C740        C  0.51150323  0.37017713  0.76383774     0.87200
C741        C  0.49190509  0.42102452  0.68863313     0.87200
C742        C  0.54311131  0.46525295  0.81750917     0.87400
O743        O  0.54233150  0.40155516  0.60180088    -0.74900
O744        O  0.54515108  0.50078517  0.58097916    -0.75000
O745        O  0.52719524  0.45272086  0.63805368    -0.75000
O746        O  0.56712189  0.45159555  0.54600391    -0.75100
O747        O  0.50500702  0.42190098  0.52419845    -0.75000
O748        O  0.46349321  0.41080047  0.62512885    -0.75000
O749        O  0.48005902  0.46517554  0.56838858    -0.74900
O750        O  0.48023566  0.36856541  0.57934805    -0.75000
Ni751      Ni  0.54752478  0.45304676  0.59237474     1.25400
Ni752      Ni  0.47963794  0.41584387  0.57303379     1.25400
C753        C  0.51038238  0.36892985  0.59304448     0.87300
C754        C  0.51157651  0.49874898  0.57351719     0.87200
C755        C  0.49192655  0.42824295  0.64868834     0.87200
C756        C  0.54323436  0.43535073  0.51981031     0.87400
O757        O  0.47742217  0.53591213  0.73546979    -0.74900
O758        O  0.47462072  0.63232687  0.75632773    -0.75000
O759        O  0.49264494  0.60228650  0.69924296    -0.75000
O760        O  0.45256255  0.56110974  0.79125592    -0.75100
O761        O  0.51463768  0.59354705  0.81314852    -0.75000
O762        O  0.55630099  0.62393909  0.71224062    -0.75000
O763        O  0.53970469  0.66179653  0.76894333    -0.74900
O764        O  0.53945649  0.56496937  0.75805957    -0.75000
Ni765      Ni  0.47223811  0.58221743  0.74490472     1.25400
Ni766      Ni  0.54008718  0.61286114  0.76433239     1.25400
C767        C  0.50933996  0.53521053  0.74429910     0.87300
C768        C  0.50819532  0.66386071  0.76381579     0.87200
C769        C  0.52790179  0.61298208  0.68864587     0.87200
C770        C  0.47640379  0.56875191  0.81749145     0.87400
O771        O  0.47749775  0.63226774  0.60186013    -0.74900
O772        O  0.47469403  0.53304420  0.58101995    -0.75000
O773        O  0.49267125  0.58109216  0.63810764    -0.75000
O774        O  0.45267060  0.58222129  0.54608332    -0.75100
O775        O  0.51476432  0.61188830  0.52421454    -0.75000
O776        O  0.55634316  0.62309622  0.62513694    -0.75000
O777        O  0.53978665  0.56867117  0.56841840    -0.74900
O778        O  0.53955980  0.66525314  0.57931022    -0.75000
Ni779      Ni  0.47230905  0.58077235  0.59243765     1.25400
Ni780      Ni  0.54017709  0.61799063  0.57303724     1.25400
C781        C  0.50942471  0.66489024  0.59303565     0.87300
C782        C  0.50827128  0.53509079  0.57353739     0.87200
C783        C  0.52792099  0.60564663  0.64871955     0.87200
C784        C  0.47653374  0.59845292  0.51986129     0.87400
O785        O  0.39420884  0.53551052  0.26849102    -0.74900
O786        O  0.49346101  0.63189557  0.24763648    -0.75000
O787        O  0.44541417  0.60182745  0.30471713    -0.75000
O788        O  0.44424694  0.56070975  0.21269615    -0.75100
O789        O  0.41458920  0.59315574  0.19086471    -0.75000
O790        O  0.40351235  0.62362739  0.29179867    -0.75000
O791        O  0.45787713  0.66140270  0.23503621    -0.74900
O792        O  0.36124987  0.56464076  0.24601689    -0.75000
Ni793      Ni  0.44571176  0.58179253  0.25905142     1.25400
Ni794      Ni  0.40853984  0.61250186  0.23969528     1.25400
C795        C  0.36159583  0.53484769  0.25971680     0.87300
C796        C  0.49144096  0.66344447  0.24016982     0.87200
C797        C  0.42096693  0.61264749  0.31536210     0.87200
C798        C  0.42802129  0.56835803  0.18649040     0.87400
O799        O  0.49094280  0.63223331  0.40218840    -0.74900
O800        O  0.39455427  0.53299031  0.42304664    -0.75000
O801        O  0.42462534  0.58103663  0.36596984    -0.75000
O802        O  0.46573975  0.58219913  0.45799024    -0.75100
O803        O  0.43331842  0.61188152  0.47982596    -0.75000
O804        O  0.40283991  0.62295224  0.37889458    -0.75000
O805        O  0.36506430  0.56858987  0.43565676    -0.74900
O806        O  0.46183379  0.66521410  0.42466461    -0.75000
Ni807      Ni  0.44465786  0.58073498  0.41163396     1.25400
Ni808      Ni  0.41396915  0.61792691  0.43099568     1.25400
C809        C  0.49161620  0.66485639  0.41095697     0.87300
C810        C  0.36301089  0.53502136  0.43050968     0.87200
C811        C  0.41381138  0.60549119  0.35532840     0.87200
C812        C  0.45811054  0.59844406  0.48419653     0.87400
O813        O  0.62493108  0.49772996  0.26852378    -0.74900
O814        O  0.52573312  0.40128927  0.24768461    -0.75000
O815        O  0.57377722  0.43137134  0.30477531    -0.75000
O816        O  0.57490126  0.47248945  0.21273699    -0.75100
O817        O  0.60456866  0.44005850  0.19088358    -0.75000
O818        O  0.61579350  0.40972305  0.29179653    -0.75000
O819        O  0.56136433  0.37182788  0.23509746    -0.74900
O820        O  0.65792483  0.46866667  0.24597343    -0.75000
Ni821      Ni  0.57344937  0.45141062  0.25909941     1.25400
Ni822      Ni  0.61067544  0.42076939  0.23970608     1.25400
C823        C  0.65755563  0.49843198  0.25970832     0.87300
C824        C  0.52778401  0.36975930  0.24020709     0.87200
C825        C  0.59835523  0.42070284  0.31537668     0.87200
C826        C  0.59113253  0.46485033  0.18652273     0.87400
O827        O  0.52873294  0.40152480  0.40214580    -0.74900
O828        O  0.62517077  0.50073290  0.42298038    -0.75000
O829        O  0.59508485  0.45268048  0.36588617    -0.75000
O830        O  0.55397661  0.45156466  0.45792743    -0.75100
O831        O  0.58640895  0.42189819  0.47977510    -0.75000
O832        O  0.61673114  0.41066031  0.37885999    -0.75000
O833        O  0.65462659  0.46509534  0.43556069    -0.74900
O834        O  0.55779704  0.36853092  0.42469082    -0.75000
Ni835      Ni  0.57505081  0.45301227  0.41156447     1.25400
Ni836      Ni  0.60568979  0.41578284  0.43095193     1.25400
C837        C  0.52803129  0.36889864  0.41096531     0.87300
C838        C  0.65669671  0.49867853  0.43046334     0.87200
C839        C  0.60575152  0.42809946  0.35528208     0.87200
C840        C  0.56162323  0.43533961  0.48414068     0.87400
O841        O  0.62500852  0.81760903  0.06887401    -0.74900
O842        O  0.52576275  0.81475367  0.08968319    -0.75000
O843        O  0.57386459  0.83278159  0.03263126    -0.75000
O844        O  0.57493431  0.79275200  0.12465067    -0.75100
O845        O  0.60459405  0.85484867  0.14651142    -0.75000
O846        O  0.61577966  0.89647360  0.04561371    -0.75000
O847        O  0.56135515  0.87984035  0.10232275    -0.74900
O848        O  0.65797578  0.87968106  0.09139478    -0.75000
Ni849      Ni  0.57351130  0.81239957  0.07829317     1.25400
Ni850      Ni  0.61069170  0.88027037  0.09769568     1.25400
C851        C  0.65762508  0.84955134  0.07766360     0.87300
C852        C  0.52778834  0.84832310  0.09716183     0.87200
C853        C  0.59835090  0.86806343  0.02202761     0.87200
C854        C  0.59114941  0.81661467  0.15086865     0.87400
O855        O  0.52853500  0.81778320  0.93516000    -0.74900
O856        O  0.62495874  0.81498792  0.91431219    -0.75000
O857        O  0.59483736  0.83287240  0.97141597    -0.75000
O858        O  0.55380081  0.79304349  0.87936264    -0.75100
O859        O  0.58625222  0.85518252  0.85758486    -0.75000
O860        O  0.61660242  0.89658942  0.95854882    -0.75000
O861        O  0.65445772  0.88010363  0.90178551    -0.74900
O862        O  0.55766699  0.87990440  0.91273556    -0.75000
Ni863      Ni  0.57484105  0.81259804  0.92572998     1.25400
Ni864      Ni  0.60554267  0.88051086  0.90643506     1.25400
C865        C  0.52786461  0.84973818  0.92639235     0.87300
C866        C  0.65650571  0.84857609  0.90686463     0.87200
C867        C  0.60560366  0.86812087  0.98208389     0.87200
C868        C  0.56146330  0.81695552  0.85318155     0.87400
O869        O  0.39429461  0.88245511  0.06885083    -0.74900
O870        O  0.49349717  0.88521458  0.08966484    -0.75000
O871        O  0.44547562  0.86732322  0.03256714    -0.75000
O872        O  0.44431307  0.90720053  0.12463591    -0.75100
O873        O  0.41460612  0.84507052  0.14643279    -0.75000
O874        O  0.40349146  0.80362290  0.04546983    -0.75000
O875        O  0.45786277  0.82010539  0.10221425    -0.74900
O876        O  0.36129371  0.82034753  0.09130612    -0.75000
Ni877      Ni  0.44577984  0.88762254  0.07826161     1.25400
Ni878      Ni  0.40854923  0.81972143  0.09758470     1.25400
C879        C  0.36166684  0.85051221  0.07763507     0.87300
C880        C  0.49144603  0.85162830  0.09712586     0.87200
C881        C  0.42094681  0.83207958  0.02191902     0.87200
C882        C  0.42804663  0.88330041  0.15082578     0.87400
O883        O  0.49075366  0.88262302  0.93516585    -0.74900
O884        O  0.39435556  0.88544956  0.91433678    -0.75000
O885        O  0.42440163  0.86740809  0.97140237    -0.75000
O886        O  0.46556162  0.90749028  0.87938335    -0.75100
O887        O  0.43314147  0.84540552  0.85749738    -0.75000
O888        O  0.40269055  0.80373592  0.95838928    -0.75000
O889        O  0.36488029  0.82036691  0.90168608    -0.74900
O890        O  0.46168350  0.82057109  0.91260142    -0.75000
Ni891      Ni  0.44445891  0.88781730  0.92573951     1.25400
Ni892      Ni  0.41380185  0.81995980  0.90630773     1.25400
C893        C  0.49144542  0.85069176  0.92635556     0.87300
C894        C  0.36281872  0.85187646  0.90684504     0.87200
C895        C  0.41366286  0.83213390  0.98198930     0.87200
C896        C  0.45793924  0.88364045  0.85315439     0.87400
O897        O  0.54225269  0.83146360  0.73551956    -0.74900
O898        O  0.54507927  0.73505877  0.75637639    -0.75000
O899        O  0.52717088  0.76515866  0.69927792    -0.75000
O900        O  0.56701053  0.80622868  0.79132507    -0.75100
O901        O  0.50487769  0.77378207  0.81310751    -0.75000
O902        O  0.46345549  0.74335885  0.71216373    -0.75000
O903        O  0.47997435  0.70555192  0.76893337    -0.74900
O904        O  0.48013414  0.80232358  0.75794189    -0.75000
Ni905      Ni  0.54745275  0.78516968  0.74495880     1.25400
Ni906      Ni  0.47954690  0.75445694  0.76426728     1.25400
C907        C  0.51029451  0.83212578  0.74427542     0.87300
C908        C  0.51149894  0.70350842  0.76382824     0.87200
C909        C  0.49191550  0.75436401  0.68862104     0.87200
C910        C  0.54309973  0.79857980  0.81750537     0.87400
O911        O  0.54234355  0.73488909  0.60177599    -0.74900
O912        O  0.54517609  0.83413010  0.58097847    -0.75000
O913        O  0.52721546  0.78605084  0.63804242    -0.75000
O914        O  0.56713972  0.78494074  0.54598771    -0.75100
O915        O  0.50502439  0.75524667  0.52418366    -0.75000
O916        O  0.46351015  0.74414814  0.62511397    -0.75000
O917        O  0.48008584  0.79852810  0.56837827    -0.74900
O918        O  0.48024426  0.70190910  0.57932999    -0.75000
Ni919      Ni  0.54754359  0.78638523  0.59236117     1.25400
Ni920      Ni  0.47965615  0.74919231  0.57301913     1.25400
C921        C  0.51038974  0.70226732  0.59302129     0.87300
C922        C  0.51160405  0.83209888  0.57351710     0.87200
C923        C  0.49194326  0.76158120  0.64867513     0.87200
C924        C  0.54325110  0.76869293  0.51979531     0.87400
O925        O  0.47742627  0.86924964  0.73546940    -0.74900
O926        O  0.47462163  0.96565932  0.75633881    -0.75000
O927        O  0.49265886  0.93563425  0.69925517    -0.75000
O928        O  0.45255617  0.89443460  0.79125786    -0.75100
O929        O  0.51462696  0.92687220  0.81316070    -0.75000
O930        O  0.55631085  0.95727552  0.71226160    -0.75000
O931        O  0.53970440  0.99512822  0.76895975    -0.74900
O932        O  0.53945374  0.89829890  0.75807445    -0.75000
Ni933      Ni  0.47224117  0.91555279  0.74491096     1.25400
Ni934      Ni  0.54008610  0.94619156  0.76434953     1.25400
C935        C  0.50934084  0.86854454  0.74430285     0.87300
C936        C  0.50819541  0.99719297  0.76382649     0.87200
C937        C  0.52791688  0.94632632  0.68866325     0.87200
C938        C  0.47639264  0.90207514  0.81749729     0.87400
O939        O  0.47751022  0.96560534  0.60188432    -0.74900
O940        O  0.47471979  0.86638985  0.58103358    -0.75000
O941        O  0.49269272  0.91443004  0.63812582    -0.75000
O942        O  0.45268811  0.91556286  0.54610564    -0.75100
O943        O  0.51478170  0.94523200  0.52423589    -0.75000
O944        O  0.55636239  0.95644551  0.62515682    -0.75000
O945        O  0.53981325  0.90202303  0.56843704    -0.74900
O946        O  0.53957058  0.99859671  0.57933121    -0.75000
Ni947      Ni  0.47232836  0.91411293  0.59245783     1.25400
Ni948      Ni  0.54019591  0.95133844  0.57305772     1.25400
C949        C  0.50943393  0.99822999  0.59305661     0.87300
C950        C  0.50829800  0.86844009  0.57354952     0.87200
C951        C  0.52794001  0.93898953  0.64873846     0.87200
C952        C  0.47655045  0.93179277  0.51988295     0.87400
O953        O  0.39422175  0.86882276  0.26849666    -0.74900
O954        O  0.49346863  0.96521830  0.24764867    -0.75000
O955        O  0.44542226  0.93513349  0.30473090    -0.75000
O956        O  0.44425840  0.89403776  0.21270109    -0.75100
O957        O  0.41458828  0.92647708  0.19088190    -0.75000
O958        O  0.40352488  0.95694153  0.29182059    -0.75000
O959        O  0.45787925  0.99472062  0.23505252    -0.74900
O960        O  0.36125874  0.89795676  0.24604031    -0.75000
Ni961      Ni  0.44572237  0.91511013  0.25906053     1.25400
Ni962      Ni  0.40854529  0.94581874  0.23971585     1.25400
C963        C  0.36160745  0.86816100  0.25973064     0.87300
C964        C  0.49144448  0.99676554  0.24018102     0.87200
C965        C  0.42097793  0.94595653  0.31537978     0.87200
C966        C  0.42802540  0.90168487  0.18650049     0.87400
O967        O  0.49095793  0.96556239  0.40221166    -0.74900
O968        O  0.39458041  0.86630716  0.42306399    -0.75000
O969        O  0.42465160  0.91435709  0.36598963    -0.75000
O970        O  0.46575888  0.91552953  0.45801472    -0.75100
O971        O  0.43332852  0.94520558  0.47984385    -0.75000
O972        O  0.40284781  0.95625896  0.37891035    -0.75000
O973        O  0.36508029  0.90189763  0.43567220    -0.74900
O974        O  0.46183628  0.99853459  0.42467970    -0.75000
Ni975      Ni  0.44468012  0.91405941  0.41165595     1.25400
Ni976      Ni  0.41397784  0.95124090  0.43101181     1.25400
C977        C  0.49162237  0.99818268  0.41097373     0.87300
C978        C  0.36303257  0.86833235  0.43052219     0.87200
C979        C  0.41382840  0.93880333  0.35534633     0.87200
C980        C  0.45812573  0.93177522  0.48421779     0.87400
O981        O  0.62494497  0.83104459  0.26854314    -0.74900
O982        O  0.52573866  0.73462444  0.24767856    -0.75000
O983        O  0.57377797  0.76467279  0.30477470    -0.75000
O984        O  0.57491923  0.80583629  0.21275139    -0.75100
O985        O  0.60456742  0.77339411  0.19088054    -0.75000
O986        O  0.61580033  0.74303592  0.29178321    -0.75000
O987        O  0.56136174  0.70515593  0.23508517    -0.74900
O988        O  0.65793143  0.80198538  0.24596654    -0.75000
Ni989      Ni  0.57345949  0.78473587  0.25910673     1.25400
Ni990      Ni  0.61067751  0.75409289  0.23969617     1.25400
C991        C  0.65756690  0.83174669  0.25971791     0.87300
C992        C  0.52778316  0.70309294  0.24019658     0.87200
C993        C  0.59836099  0.75400821  0.31536949     0.87200
C994        C  0.59113898  0.79819368  0.18652950     0.87400
O995        O  0.52875108  0.73485748  0.40212452    -0.74900
O996        O  0.62519723  0.83405014  0.42297636    -0.75000
O997        O  0.59511910  0.78600605  0.36587591    -0.75000
O998        O  0.55399380  0.78489340  0.45790932    -0.75100
O999        O  0.58641788  0.75522230  0.47976595    -0.75000
O1000       O  0.61673543  0.74396299  0.37885377    -0.75000
O1001       O  0.65464207  0.79840188  0.43555456    -0.74900
O1002       O  0.55779439  0.70185002  0.42468418    -0.75000
Ni1003     Ni  0.57507542  0.78633838  0.41155037     1.25400
Ni1004     Ni  0.60569614  0.74909499  0.43094512     1.25400
C1005       C  0.52803615  0.70222647  0.41095091     0.87300
C1006       C  0.65671841  0.83198918  0.43046323     0.87200
C1007       C  0.60576887  0.76141138  0.35527372     0.87200
C1008       C  0.56163729  0.76867098  0.48412672     0.87400
O1009       O  0.95834030  0.15094375  0.06884487    -0.74900
O1010       O  0.85909412  0.14808412  0.08967387    -0.75000
O1011       O  0.90718942  0.16612301  0.03261705    -0.75000
O1012       O  0.90826894  0.12607419  0.12462620    -0.75100
O1013       O  0.93792583  0.18816697  0.14649596    -0.75000
O1014       O  0.94911345  0.22981085  0.04560573    -0.75000
O1015       O  0.89468832  0.21316945  0.10231789    -0.74900
O1016       O  0.99130825  0.21300971  0.09137866    -0.75000
Ni1017     Ni  0.90684203  0.14573163  0.07827344     1.25400
Ni1018     Ni  0.94402449  0.21359851  0.09768520     1.25400
C1019       C  0.99095738  0.18288301  0.07763862     0.87300
C1020       C  0.86112079  0.18165371  0.09715644     0.87200
C1021       C  0.93168107  0.20140426  0.02201659     0.87200
C1022       C  0.92448158  0.14993207  0.15084776     0.87400
O1023       O  0.86187229  0.15112140  0.93515322    -0.74900
O1024       O  0.95829436  0.14832432  0.91430477    -0.75000
O1025       O  0.92817712  0.16621439  0.97140746    -0.75000
O1026       O  0.88713520  0.12637818  0.87935704    -0.75100
O1027       O  0.91958655  0.18851579  0.85757582    -0.75000
O1028       O  0.94993764  0.22992980  0.95853740    -0.75000
O1029       O  0.98779332  0.21343958  0.90177599    -0.74900
O1030       O  0.89100191  0.21324053  0.91272397    -0.75000
Ni1031     Ni  0.90817788  0.14593593  0.92572303     1.25400
Ni1032     Ni  0.93887790  0.21384734  0.90642442     1.25400
C1033       C  0.86120020  0.18307437  0.92638326     0.87300
C1034       C  0.98984127  0.18191185  0.90685636     0.87200
C1035       C  0.93893981  0.20146277  0.98207380     0.87200
C1036       C  0.89479681  0.15028889  0.85317477     0.87400
O1037       O  0.72762859  0.21578406  0.06882342    -0.74900
O1038       O  0.82683104  0.21854738  0.08965848    -0.75000
O1039       O  0.77881825  0.20064780  0.03255542    -0.75000
O1040       O  0.77764262  0.24054023  0.12461415    -0.75100
O1041       O  0.74793910  0.17841375  0.14641907    -0.75000
O1042       O  0.73682379  0.13695120  0.04546146    -0.75000
O1043       O  0.79119446  0.15343884  0.10220941    -0.74900
O1044       O  0.69462633  0.15368216  0.09129078    -0.75000
Ni1045     Ni  0.77911473  0.22095415  0.07824455     1.25400
Ni1046     Ni  0.74188149  0.15305629  0.09757473     1.25400
C1047       C  0.69500009  0.18384397  0.07761081     0.87300
C1048       C  0.82477860  0.18496046  0.09712138     0.87200
C1049       C  0.75428364  0.16540481  0.02190885     0.87200
C1050       C  0.76137888  0.21664444  0.15080720     0.87400
O1051       O  0.82408794  0.21595693  0.93515924    -0.74900
O1052       O  0.72769018  0.21878355  0.91433184    -0.75000
O1053       O  0.75773371  0.20073581  0.97139559    -0.75000
O1054       O  0.79889676  0.24082728  0.87937884    -0.75100
O1055       O  0.76647835  0.17874371  0.85748968    -0.75000
O1056       O  0.73602468  0.13706508  0.95837793    -0.75000
O1057       O  0.69821559  0.15370203  0.90167636    -0.74900
O1058       O  0.79501950  0.15390651  0.91259124    -0.75000
Ni1059     Ni  0.77779287  0.22115038  0.92573406     1.25400
Ni1060     Ni  0.74713743  0.15329442  0.90629782     1.25400
C1061       C  0.82478115  0.18402750  0.92634692     0.87300
C1062       C  0.69615379  0.18521130  0.90683734     0.87200
C1063       C  0.74699660  0.16546160  0.98198006     0.87200
C1064       C  0.79127580  0.21697885  0.85314879     0.87400
O1065       O  0.87558077  0.16479347  0.73551384    -0.74900
O1066       O  0.87841167  0.06839053  0.75637384    -0.75000
O1067       O  0.86049992  0.09848774  0.69927236    -0.75000
O1068       O  0.90034160  0.13956072  0.79131881    -0.75100
O1069       O  0.83820959  0.10711369  0.81310339    -0.75000
O1070       O  0.79678526  0.07668916  0.71216058    -0.75000
O1071       O  0.81330705  0.03888379  0.76893195    -0.74900
O1072       O  0.81346319  0.13565369  0.75793827    -0.75000
Ni1073     Ni  0.88078291  0.11850030  0.74495342     1.25400
Ni1074     Ni  0.81287773  0.08778769  0.76426397     1.25400
C1075       C  0.84362309  0.16545602  0.74427081     0.87300
C1076       C  0.84483171  0.03684049  0.76383042     0.87200
C1077       C  0.82524432  0.08769523  0.68861698     0.87200
C1078       C  0.87643154  0.13191162  0.81749987     0.87400
O1079       O  0.87567635  0.06822865  0.60179126    -0.74900
O1080       O  0.87850724  0.16746343  0.58096668    -0.75000
O1081       O  0.86054167  0.11939602  0.63804053    -0.75000
O1082       O  0.90047586  0.11826843  0.54599226    -0.75100
O1083       O  0.83836292  0.08857748  0.52418299    -0.75000
O1084       O  0.79684042  0.07747896  0.62510988    -0.75000
O1085       O  0.81341637  0.13185711  0.56837047    -0.74900
O1086       O  0.81358285  0.03524183  0.57933297    -0.75000
Ni1087     Ni  0.88087529  0.11972180  0.59236266     1.25400
Ni1088     Ni  0.81299028  0.08252277  0.57301628     1.25400
C1089       C  0.84372588  0.03560408  0.59303506     0.87300
C1090       C  0.84493398  0.16542953  0.57350468     0.87200
C1091       C  0.82527147  0.09491838  0.64867208     0.87200
C1092       C  0.87658994  0.10202283  0.51979747     0.87400
O1093       O  0.81075475  0.20258128  0.73546691    -0.74900
O1094       O  0.80795724  0.29899656  0.75633310    -0.75000
O1095       O  0.82598763  0.26896312  0.69924706    -0.75000
O1096       O  0.78589103  0.22777435  0.79125409    -0.75100
O1097       O  0.84796329  0.26020825  0.81315391    -0.75000
O1098       O  0.88964021  0.29060550  0.71225226    -0.75000
O1099       O  0.87303993  0.32846222  0.76895316    -0.74900
O1100       O  0.87278438  0.23163053  0.75806671    -0.75000
Ni1101     Ni  0.80557314  0.24888751  0.74490581     1.25400
Ni1102     Ni  0.87341904  0.27952449  0.76434133     1.25400
C1103       C  0.84266934  0.20187531  0.74429820     0.87300
C1104       C  0.84153122  0.33052858  0.76382421     0.87200
C1105       C  0.86124509  0.27965395  0.68865448     0.87200
C1106       C  0.80972873  0.23541397  0.81749221     0.87400
O1107       O  0.81083748  0.29893047  0.60188433    -0.74900
O1108       O  0.80804799  0.19971883  0.58101869    -0.75000
O1109       O  0.82602156  0.24775193  0.63811726    -0.75000
O1110       O  0.78601606  0.24889645  0.54609817    -0.75100
O1111       O  0.84810928  0.27856610  0.52422785    -0.75000
O1112       O  0.88968980  0.28977333  0.62514815    -0.75000
O1113       O  0.87314181  0.23535420  0.56842446    -0.74900
O1114       O  0.87289602  0.33192658  0.57932772    -0.75000
Ni1115     Ni  0.80565634  0.24744018  0.59244983     1.25400
Ni1116     Ni  0.87352324  0.28466927  0.57304932     1.25400
C1117       C  0.84275988  0.33155698  0.59305845     0.87300
C1118       C  0.84162704  0.20177054  0.57353488     0.87200
C1119       C  0.86126819  0.27231461  0.64872989     0.87200
C1120       C  0.80987777  0.26512745  0.51987554     0.87400
O1121       O  0.72755361  0.20215827  0.26846854    -0.74900
O1122       O  0.82680204  0.29856061  0.24764206    -0.75000
O1123       O  0.77874725  0.26846071  0.30471579    -0.75000
O1124       O  0.77759813  0.22738715  0.21268006    -0.75100
O1125       O  0.74792454  0.25982462  0.19086478    -0.75000
O1126       O  0.73685539  0.29027630  0.29180806    -0.75000
O1127       O  0.79121292  0.32806313  0.23504564    -0.74900
O1128       O  0.69459110  0.23129585  0.24601922    -0.75000
Ni1129     Ni  0.77905480  0.24844884  0.25904242     1.25400
Ni1130     Ni  0.74187860  0.27915986  0.23970158     1.25400
C1131       C  0.69493944  0.20149716  0.25970326     0.87300
C1132       C  0.82477765  0.33010875  0.24017940     0.87200
C1133       C  0.75430695  0.27928791  0.31536633     0.87200
C1134       C  0.76136249  0.23503310  0.18648128     0.87400
O1135       O  0.82429320  0.29890408  0.40220922    -0.74900
O1136       O  0.72791315  0.19964500  0.42304873    -0.75000
O1137       O  0.75799330  0.24769963  0.36597853    -0.75000
O1138       O  0.79908781  0.24886500  0.45800715    -0.75100
O1139       O  0.76665650  0.27854095  0.47983384    -0.75000
O1140       O  0.73617816  0.28959265  0.37889754    -0.75000
O1141       O  0.69841102  0.23523317  0.43565892    -0.74900
O1142       O  0.79516270  0.33187053  0.42467080    -0.75000
Ni1143     Ni  0.77801485  0.24739878  0.41164671     1.25400
Ni1144     Ni  0.74730691  0.28457590  0.43100020     1.25400
C1145       C  0.82495279  0.33152211  0.41097117     0.87300
C1146       C  0.69636469  0.20166870  0.43050701     0.87200
C1147       C  0.74716302  0.27214025  0.35533419     0.87200
C1148       C  0.79145367  0.26511021  0.48420928     0.87400
O1149       O  0.95827579  0.16438017  0.26851109    -0.74900
O1150       O  0.85907152  0.06794708  0.24767354    -0.75000
O1151       O  0.90711959  0.09802057  0.30476081    -0.75000
O1152       O  0.90824149  0.13914885  0.21272691    -0.75100
O1153       O  0.93789849  0.10671184  0.19086448    -0.75000
O1154       O  0.94913567  0.07637413  0.29177596    -0.75000
O1155       O  0.89469724  0.03848086  0.23508248    -0.74900
O1156       O  0.99126445  0.13531723  0.24594822    -0.75000
Ni1157     Ni  0.90679130  0.11806509  0.25908724     1.25400
Ni1158     Ni  0.94401141  0.08742114  0.23968544     1.25400
C1159       C  0.99089829  0.16508205  0.25969014     0.87300
C1160       C  0.86111868  0.03641502  0.24019782     0.87200
C1161       C  0.93169771  0.08735101  0.31535944     0.87200
C1162       C  0.92446601  0.13150782  0.18650845     0.87400
O1163       O  0.86207767  0.06818475  0.40213720    -0.74900
O1164       O  0.95852806  0.16738421  0.42296362    -0.75000
O1165       O  0.92843149  0.11932963  0.36587049    -0.75000
O1166       O  0.88733445  0.11823101  0.45791345    -0.75100
O1167       O  0.91975841  0.08855684  0.47976289    -0.75000
O1168       O  0.95007110  0.07730448  0.37884490    -0.75000
O1169       O  0.98797710  0.13174058  0.43554516    -0.74900
O1170       O  0.89113632  0.03518542  0.42468156    -0.75000
Ni1171     Ni  0.90840303  0.11966910  0.41155012     1.25400
Ni1172     Ni  0.93903433  0.08243293  0.43093853     1.25400
C1173       C  0.86137094  0.03555665  0.41096025     0.87300
C1174       C  0.99005092  0.16532601  0.43044989     0.87200
C1175       C  0.93909465  0.09474615  0.35526623     0.87200
C1176       C  0.89497827  0.10200570  0.48412800     0.87400
O1177       O  0.95834746  0.48427402  0.06886077    -0.74900
O1178       O  0.85910317  0.48141944  0.08968098    -0.75000
O1179       O  0.90720248  0.49945417  0.03262669    -0.75000
O1180       O  0.90827421  0.45941153  0.12464031    -0.75100
O1181       O  0.93793076  0.52150618  0.14650616    -0.75000
O1182       O  0.94912525  0.56314299  0.04561412    -0.75000
O1183       O  0.89469736  0.54650567  0.10232185    -0.74900
O1184       O  0.99131595  0.54634136  0.09139167    -0.75000
Ni1185     Ni  0.90685057  0.47906503  0.07828522     1.25400
Ni1186     Ni  0.94403308  0.54693337  0.09769378     1.25400
C1187       C  0.99096426  0.51621325  0.07765348     0.87300
C1188       C  0.86112981  0.51498913  0.09716171     0.87200
C1189       C  0.93169454  0.53473624  0.02202597     0.87200
C1190       C  0.92448518  0.48327202  0.15086082     0.87400
O1191       O  0.86188667  0.48446014  0.93515976    -0.74900
O1192       O  0.95830806  0.48165986  0.91431309    -0.75000
O1193       O  0.92818866  0.49954705  0.97141609    -0.75000
O1194       O  0.88715075  0.45971770  0.87936433    -0.75100
O1195       O  0.91960268  0.52185628  0.85758530    -0.75000
O1196       O  0.94995353  0.56326393  0.95854847    -0.75000
O1197       O  0.98780796  0.54677546  0.90178542    -0.74900
O1198       O  0.89101994  0.54658120  0.91273467    -0.75000
Ni1199     Ni  0.90819151  0.47927241  0.92573073     1.25400
Ni1200     Ni  0.93889424  0.54718512  0.90643490     1.25400
C1201       C  0.86121654  0.51641450  0.92639075     0.87300
C1202       C  0.98985485  0.51524665  0.90686459     0.87200
C1203       C  0.93895303  0.53479470  0.98208362     0.87200
C1204       C  0.89481275  0.48362971  0.85318314     0.87400
O1205       O  0.72763469  0.54911626  0.06883830    -0.74900
O1206       O  0.82683862  0.55188126  0.08966556    -0.75000
O1207       O  0.77882453  0.53398675  0.03256367    -0.75000
O1208       O  0.77764866  0.57386781  0.12462702    -0.75100
O1209       O  0.74794148  0.51173956  0.14642758    -0.75000
O1210       O  0.73683701  0.47028735  0.04546552    -0.75000
O1211       O  0.79120396  0.48677245  0.10221594    -0.74900
O1212       O  0.69463331  0.48701012  0.09129644    -0.75000
Ni1213     Ni  0.77912121  0.55428705  0.07825557     1.25400
Ni1214     Ni  0.74188973  0.48638706  0.09758063     1.25400
C1215       C  0.69500671  0.51717439  0.07762295     0.87300
C1216       C  0.82478738  0.51829496  0.09712739     0.87200
C1217       C  0.75429511  0.49874360  0.02191467     0.87200
C1218       C  0.76138005  0.54996998  0.15081766     0.87400
O1219       O  0.82410442  0.54929808  0.93516221    -0.74900
O1220       O  0.72770417  0.55212018  0.91433597    -0.75000
O1221       O  0.75775122  0.53407588  0.97139948    -0.75000
O1222       O  0.79891085  0.57416628  0.87938050    -0.75100
O1223       O  0.76649180  0.51208234  0.85749261    -0.75000
O1224       O  0.73604242  0.47040506  0.95838243    -0.75000
O1225       O  0.69823039  0.48703833  0.90168228    -0.74900
O1226       O  0.79503695  0.48724785  0.91259406    -0.75000
Ni1227     Ni  0.77780842  0.55448972  0.92573701     1.25400
Ni1228     Ni  0.74715365  0.48663361  0.90630184     1.25400
C1229       C  0.82479779  0.51736846  0.92635097     0.87300
C1230       C  0.69616818  0.51854775  0.90684363     0.87200
C1231       C  0.74701307  0.49880123  0.98198446     0.87200
C1232       C  0.79128825  0.55031746  0.85315029     0.87400
O1233       O  0.87558435  0.49812823  0.73552015    -0.74900
O1234       O  0.87841526  0.40172668  0.75638261    -0.75000
O1235       O  0.86049521  0.43181756  0.69928452    -0.75000
O1236       O  0.90035142  0.47290092  0.79132536    -0.75100
O1237       O  0.83822226  0.44045445  0.81311668    -0.75000
O1238       O  0.79678281  0.41002324  0.71217991    -0.75000
O1239       O  0.81331193  0.37222114  0.76894633    -0.74900
O1240       O  0.81347094  0.46899281  0.75795410    -0.75000
Ni1241     Ni  0.88078616  0.45183577  0.74496210     1.25400
Ni1242     Ni  0.81288377  0.42112593  0.76428049     1.25400
C1243       C  0.84362721  0.49879161  0.74427949     0.87300
C1244       C  0.84483648  0.37017715  0.76383772     0.87200
C1245       C  0.82523868  0.42102464  0.68863312     0.87200
C1246       C  0.87644444  0.46525287  0.81750920     0.87400
O1247       O  0.87566479  0.40155522  0.60180089    -0.74900
O1248       O  0.87848420  0.50078511  0.58097913    -0.75000
O1249       O  0.86052855  0.45272084  0.63805367    -0.75000
O1250       O  0.90045515  0.45159559  0.54600391    -0.75100
O1251       O  0.83834031  0.42190100  0.52419843    -0.75000
O1252       O  0.79682652  0.41080047  0.62512886    -0.75000
O1253       O  0.81339216  0.46517540  0.56838857    -0.74900
O1254       O  0.81356899  0.36856542  0.57934807    -0.75000
Ni1255     Ni  0.88085804  0.45304675  0.59237475     1.25400
Ni1256     Ni  0.81297130  0.41584390  0.57303380     1.25400
C1257       C  0.84371537  0.36892976  0.59304444     0.87300
C1258       C  0.84491032  0.49874923  0.57351727     0.87200
C1259       C  0.82525945  0.42824276  0.64868831     0.87200
C1260       C  0.87656776  0.43535078  0.51981033     0.87400
O1261       O  0.81075541  0.53591216  0.73546980    -0.74900
O1262       O  0.80795405  0.63232692  0.75632772    -0.75000
O1263       O  0.82597835  0.60228655  0.69924290    -0.75000
O1264       O  0.78589588  0.56110975  0.79125590    -0.75100
O1265       O  0.84797100  0.59354703  0.81314853    -0.75000
O1266       O  0.88963439  0.62393912  0.71224065    -0.75000
O1267       O  0.87303803  0.66179655  0.76894332    -0.74900
O1268       O  0.87278976  0.56496934  0.75805957    -0.75000
Ni1269     Ni  0.80557142  0.58221746  0.74490470     1.25400
Ni1270     Ni  0.87342052  0.61286115  0.76433239     1.25400
C1271       C  0.84267341  0.53521060  0.74429915     0.87300
C1272       C  0.84152834  0.66386064  0.76381577     0.87200
C1273       C  0.86123491  0.61298200  0.68864584     0.87200
C1274       C  0.80973717  0.56875195  0.81749147     0.87400
O1275       O  0.81083112  0.63226771  0.60186013    -0.74900
O1276       O  0.80802746  0.53304426  0.58101990    -0.75000
O1277       O  0.82600457  0.58109219  0.63810760    -0.75000
O1278       O  0.78600398  0.58222135  0.54608328    -0.75100
O1279       O  0.84809772  0.61188826  0.52421456    -0.75000
O1280       O  0.88967650  0.62309619  0.62513696    -0.75000
O1281       O  0.87312008  0.56867120  0.56841842    -0.74900
O1282       O  0.87289318  0.66525313  0.57931031    -0.75000
Ni1283     Ni  0.80564242  0.58077240  0.59243765     1.25400
Ni1284     Ni  0.87351043  0.61799056  0.57303726     1.25400
C1285       C  0.84275831  0.66489032  0.59303558     0.87300
C1286       C  0.84160402  0.53509050  0.57353744     0.87200
C1287       C  0.86125459  0.60564675  0.64871952     0.87200
C1288       C  0.80986669  0.59845279  0.51986143     0.87400
O1289       O  0.72754211  0.53551052  0.26849102    -0.74900
O1290       O  0.82679435  0.63189543  0.24763652    -0.75000
O1291       O  0.77874750  0.60182743  0.30471710    -0.75000
O1292       O  0.77758022  0.56070976  0.21269614    -0.75100
O1293       O  0.74792248  0.59315578  0.19086472    -0.75000
O1294       O  0.73684565  0.62362736  0.29179868    -0.75000
O1295       O  0.79121054  0.66140265  0.23503628    -0.74900
O1296       O  0.69458318  0.56464080  0.24601685    -0.75000
Ni1297     Ni  0.77904508  0.58179250  0.25905142     1.25400
Ni1298     Ni  0.74187312  0.61250187  0.23969530     1.25400
C1299       C  0.69492910  0.53484774  0.25971679     0.87300
C1300       C  0.82477386  0.66344465  0.24016977     0.87200
C1301       C  0.75430014  0.61264754  0.31536208     0.87200
C1302       C  0.76135461  0.56835810  0.18649037     0.87400
O1303       O  0.82427606  0.63223332  0.40218841    -0.74900
O1304       O  0.72788771  0.53299031  0.42304661    -0.75000
O1305       O  0.75795861  0.58103667  0.36596983    -0.75000
O1306       O  0.79907297  0.58219914  0.45799030    -0.75100
O1307       O  0.76665168  0.61188155  0.47982596    -0.75000
O1308       O  0.73617317  0.62295222  0.37889459    -0.75000
O1309       O  0.69839764  0.56858973  0.43565676    -0.74900
O1310       O  0.79516705  0.66521409  0.42466460    -0.75000
Ni1311     Ni  0.77799114  0.58073501  0.41163395     1.25400
Ni1312     Ni  0.74730248  0.61792686  0.43099567     1.25400
C1313       C  0.82494956  0.66485633  0.41095694     0.87300
C1314       C  0.69634404  0.53502155  0.43050974     0.87200
C1315       C  0.74714474  0.60549113  0.35532838     0.87200
C1316       C  0.79144408  0.59844392  0.48419639     0.87400
O1317       O  0.95826440  0.49772994  0.26852378    -0.74900
O1318       O  0.85906646  0.40128923  0.24768457    -0.75000
O1319       O  0.90711046  0.43137137  0.30477529    -0.75000
O1320       O  0.90823457  0.47248950  0.21273701    -0.75100
O1321       O  0.93790196  0.44005852  0.19088362    -0.75000
O1322       O  0.94912676  0.40972308  0.29179656    -0.75000
O1323       O  0.89469771  0.37182790  0.23509741    -0.74900
O1324       O  0.99125818  0.46866665  0.24597342    -0.75000
Ni1325     Ni  0.90678266  0.45141062  0.25909942     1.25400
Ni1326     Ni  0.94400878  0.42076940  0.23970607     1.25400
C1327       C  0.99088889  0.49843198  0.25970831     0.87300
C1328       C  0.86111715  0.36975942  0.24020714     0.87200
C1329       C  0.93168874  0.42070270  0.31537666     0.87200
C1330       C  0.92446597  0.46485034  0.18652272     0.87400
O1331       O  0.86206635  0.40152488  0.40214577    -0.74900
O1332       O  0.95850415  0.50073291  0.42298035    -0.75000
O1333       O  0.92841833  0.45268054  0.36588616    -0.75000
O1334       O  0.88731005  0.45156471  0.45792743    -0.75100
O1335       O  0.91974229  0.42189812  0.47977509    -0.75000
O1336       O  0.95006448  0.41066027  0.37885999    -0.75000
O1337       O  0.98795993  0.46509530  0.43556072    -0.74900
O1338       O  0.89113031  0.36853089  0.42469085    -0.75000
Ni1339     Ni  0.90838421  0.45301234  0.41156445     1.25400
Ni1340     Ni  0.93902311  0.41578281  0.43095192     1.25400
C1341       C  0.86136475  0.36889861  0.41096536     0.87300
C1342       C  0.99002988  0.49867867  0.43046334     0.87200
C1343       C  0.93908468  0.42809964  0.35528204     0.87200
C1344       C  0.89495655  0.43533966  0.48414063     0.87400
O1345       O  0.95834196  0.81760908  0.06887399    -0.74900
O1346       O  0.85909610  0.81475368  0.08968320    -0.75000
O1347       O  0.90719785  0.83278158  0.03263125    -0.75000
O1348       O  0.90826757  0.79275198  0.12465069    -0.75100
O1349       O  0.93792737  0.85484869  0.14651141    -0.75000
O1350       O  0.94911296  0.89647357  0.04561370    -0.75000
O1351       O  0.89468835  0.87984040  0.10232276    -0.74900
O1352       O  0.99130905  0.87968111  0.09139477    -0.75000
Ni1353     Ni  0.90684468  0.81239958  0.07829318     1.25400
Ni1354     Ni  0.94402494  0.88027041  0.09769569     1.25400
C1355       C  0.99095842  0.84955131  0.07766356     0.87300
C1356       C  0.86112155  0.84832312  0.09716182     0.87200
C1357       C  0.93168413  0.86806341  0.02202761     0.87200
C1358       C  0.92448273  0.81661487  0.15086873     0.87400
O1359       O  0.86186835  0.81778323  0.93515999    -0.74900
O1360       O  0.95829210  0.81498795  0.91431221    -0.75000
O1361       O  0.92817067  0.83287240  0.97141596    -0.75000
O1362       O  0.88713413  0.79304346  0.87936264    -0.75100
O1363       O  0.91958556  0.85518248  0.85758486    -0.75000
O1364       O  0.94993574  0.89658943  0.95854882    -0.75000
O1365       O  0.98779096  0.88010367  0.90178554    -0.74900
O1366       O  0.89100031  0.87990442  0.91273555    -0.75000
Ni1367     Ni  0.90817442  0.81259805  0.92572995     1.25400
Ni1368     Ni  0.93887598  0.88051086  0.90643506     1.25400
C1369       C  0.86119787  0.84973813  0.92639235     0.87300
C1370       C  0.98983903  0.84857604  0.90686467     0.87200
C1371       C  0.93893698  0.86812089  0.98208388     0.87200
C1372       C  0.89479661  0.81695560  0.85318150     0.87400
O1373       O  0.72762791  0.88245510  0.06885084    -0.74900
O1374       O  0.82683050  0.88521462  0.08966483    -0.75000
O1375       O  0.77880890  0.86732320  0.03256714    -0.75000
O1376       O  0.77764637  0.90720055  0.12463590    -0.75100
O1377       O  0.74793940  0.84507051  0.14643277    -0.75000
O1378       O  0.73682471  0.80362288  0.04546983    -0.75000
O1379       O  0.79119608  0.82010539  0.10221418    -0.74900
O1380       O  0.69462694  0.82034755  0.09130621    -0.75000
Ni1381     Ni  0.77911318  0.88762258  0.07826160     1.25400
Ni1382     Ni  0.74188251  0.81972143  0.09758471     1.25400
C1383       C  0.69500013  0.85051217  0.07763511     0.87300
C1384       C  0.82477935  0.85162827  0.09712583     0.87200
C1385       C  0.75428006  0.83207957  0.02191902     0.87200
C1386       C  0.76137999  0.88330061  0.15082571     0.87400
O1387       O  0.82408697  0.88262303  0.93516586    -0.74900
O1388       O  0.72768889  0.88544960  0.91433677    -0.75000
O1389       O  0.75773492  0.86740810  0.97140236    -0.75000
O1390       O  0.79889491  0.90749029  0.87938335    -0.75100
O1391       O  0.76647475  0.84540552  0.85749739    -0.75000
O1392       O  0.73602381  0.80373592  0.95838927    -0.75000
O1393       O  0.69821363  0.82036699  0.90168601    -0.74900
O1394       O  0.79501670  0.82057106  0.91260149    -0.75000
Ni1395     Ni  0.77779223  0.88781731  0.92573951     1.25400
Ni1396     Ni  0.74713514  0.81995981  0.90630774     1.25400
C1397       C  0.82477874  0.85069180  0.92635560     0.87300
C1398       C  0.69615202  0.85187638  0.90684501     0.87200
C1399       C  0.74699611  0.83213389  0.98198929     0.87200
C1400       C  0.79127249  0.88364042  0.85315439     0.87400
O1401       O  0.87558588  0.83146356  0.73551963    -0.74900
O1402       O  0.87841248  0.73505868  0.75637637    -0.75000
O1403       O  0.86050425  0.76515871  0.69927793    -0.75000
O1404       O  0.90034386  0.80622867  0.79132506    -0.75100
O1405       O  0.83821101  0.77378204  0.81310749    -0.75000
O1406       O  0.79678881  0.74335887  0.71216371    -0.75000
O1407       O  0.81330755  0.70555198  0.76893341    -0.74900
O1408       O  0.81346729  0.80232350  0.75794191    -0.75000
Ni1409     Ni  0.88078616  0.78516969  0.74495878     1.25400
Ni1410     Ni  0.81288021  0.75445699  0.76426726     1.25400
C1411       C  0.84362831  0.83212598  0.74427529     0.87300
C1412       C  0.84483247  0.70350854  0.76382818     0.87200
C1413       C  0.82524890  0.75436404  0.68862102     0.87200
C1414       C  0.87643293  0.79857976  0.81750538     0.87400
O1415       O  0.87567694  0.73488910  0.60177597    -0.74900
O1416       O  0.87850940  0.83413004  0.58097840    -0.75000
O1417       O  0.86054891  0.78605083  0.63804239    -0.75000
O1418       O  0.90047308  0.78494066  0.54598767    -0.75100
O1419       O  0.83835772  0.75524673  0.52418375    -0.75000
O1420       O  0.79684356  0.74414821  0.62511400    -0.75000
O1421       O  0.81341912  0.79852805  0.56837832    -0.74900
O1422       O  0.81357766  0.70190914  0.57932999    -0.75000
Ni1423     Ni  0.88087697  0.78638520  0.59236111     1.25400
Ni1424     Ni  0.81298947  0.74919234  0.57301918     1.25400
C1425       C  0.84372287  0.70226723  0.59302121     0.87300
C1426       C  0.84493739  0.83209886  0.57351712     0.87200
C1427       C  0.82527664  0.76158115  0.64867514     0.87200
C1428       C  0.87658438  0.76869292  0.51979527     0.87400
O1429       O  0.81075968  0.86924964  0.73546945    -0.74900
O1430       O  0.80795476  0.96565921  0.75633881    -0.75000
O1431       O  0.82599227  0.93563426  0.69925516    -0.75000
O1432       O  0.78588958  0.89443464  0.79125787    -0.75100
O1433       O  0.84796037  0.92687213  0.81316070    -0.75000
O1434       O  0.88964426  0.95727550  0.71226161    -0.75000
O1435       O  0.87303756  0.99512821  0.76895970    -0.74900
O1436       O  0.87278717  0.89829894  0.75807443    -0.75000
Ni1437     Ni  0.80557450  0.91555284  0.74491098     1.25400
Ni1438     Ni  0.87341946  0.94619152  0.76434949     1.25400
C1439       C  0.84267365  0.86854432  0.74430272     0.87300
C1440       C  0.84152988  0.99719351  0.76382664     0.87200
C1441       C  0.86125017  0.94632630  0.68866326     0.87200
C1442       C  0.80972606  0.90207515  0.81749729     0.87400
O1443       O  0.81084363  0.96560529  0.60188427    -0.74900
O1444       O  0.80805320  0.86638986  0.58103364    -0.75000
O1445       O  0.82602611  0.91443003  0.63812582    -0.75000
O1446       O  0.78602147  0.91556279  0.54610564    -0.75100
O1447       O  0.84811506  0.94523200  0.52423587    -0.75000
O1448       O  0.88969577  0.95644551  0.62515685    -0.75000
O1449       O  0.87314665  0.90202296  0.56843704    -0.74900
O1450       O  0.87290403  0.99859672  0.57933126    -0.75000
Ni1451     Ni  0.80566175  0.91411291  0.59245783     1.25400
Ni1452     Ni  0.87352931  0.95133841  0.57305773     1.25400
C1453       C  0.84276729  0.99822995  0.59305659     0.87300
C1454       C  0.84163139  0.86844009  0.57354952     0.87200
C1455       C  0.86127353  0.93898960  0.64873845     0.87200
C1456       C  0.80988390  0.93179283  0.51988289     0.87400
O1457       O  0.72755511  0.86882280  0.26849669    -0.74900
O1458       O  0.82680199  0.96521822  0.24764874    -0.75000
O1459       O  0.77875558  0.93513346  0.30473093    -0.75000
O1460       O  0.77759172  0.89403776  0.21270106    -0.75100
O1461       O  0.74792173  0.92647721  0.19088189    -0.75000
O1462       O  0.73685825  0.95694159  0.29182057    -0.75000
O1463       O  0.79121275  0.99472067  0.23505249    -0.74900
O1464       O  0.69459215  0.89795684  0.24604028    -0.75000
Ni1465     Ni  0.77905569  0.91511011  0.25906055     1.25400
Ni1466     Ni  0.74187871  0.94581885  0.23971582     1.25400
C1467       C  0.69494085  0.86816105  0.25973064     0.87300
C1468       C  0.82477779  0.99676552  0.24018099     0.87200
C1469       C  0.75431139  0.94595651  0.31537982     0.87200
C1470       C  0.76135887  0.90168483  0.18650053     0.87400
O1471       O  0.82429122  0.96556235  0.40221164    -0.74900
O1472       O  0.72791368  0.86630716  0.42306400    -0.75000
O1473       O  0.75798487  0.91435702  0.36598966    -0.75000
O1474       O  0.79909217  0.91552954  0.45801472    -0.75100
O1475       O  0.76666185  0.94520560  0.47984387    -0.75000
O1476       O  0.73618112  0.95625893  0.37891033    -0.75000
O1477       O  0.69841358  0.90189765  0.43567222    -0.74900
O1478       O  0.79516963  0.99853460  0.42467968    -0.75000
Ni1479     Ni  0.77801339  0.91405940  0.41165596     1.25400
Ni1480     Ni  0.74731115  0.95124092  0.43101181     1.25400
C1481       C  0.82495560  0.99818273  0.41097377     0.87300
C1482       C  0.69636584  0.86833237  0.43052220     0.87200
C1483       C  0.74716167  0.93880343  0.35534634     0.87200
C1484       C  0.79145898  0.93177525  0.48421781     0.87400
O1485       O  0.95827830  0.83104456  0.26854313    -0.74900
O1486       O  0.85907197  0.73462452  0.24767856    -0.75000
O1487       O  0.90711127  0.76467279  0.30477466    -0.75000
O1488       O  0.90825255  0.80583635  0.21275143    -0.75100
O1489       O  0.93790072  0.77339417  0.19088053    -0.75000
O1490       O  0.94913362  0.74303592  0.29178331    -0.75000
O1491       O  0.89469491  0.70515588  0.23508519    -0.74900
O1492       O  0.99126472  0.80198533  0.24596650    -0.75000
Ni1493     Ni  0.90679285  0.78473585  0.25910669     1.25400
Ni1494     Ni  0.94401082  0.75409288  0.23969619     1.25400
C1495       C  0.99089996  0.83174679  0.25971798     0.87300
C1496       C  0.86111685  0.70309269  0.24019651     0.87200
C1497       C  0.93169444  0.75400815  0.31536944     0.87200
C1498       C  0.92447239  0.79819365  0.18652945     0.87400
O1499       O  0.86208438  0.73485745  0.40212453    -0.74900
O1500       O  0.95853052  0.83405009  0.42297633    -0.75000
O1501       O  0.92845240  0.78600598  0.36587585    -0.75000
O1502       O  0.88732712  0.78489344  0.45790926    -0.75100
O1503       O  0.91975117  0.75522232  0.47976591    -0.75000
O1504       O  0.95006875  0.74396294  0.37885377    -0.75000
O1505       O  0.98797535  0.79840182  0.43555455    -0.74900
O1506       O  0.89112773  0.70185003  0.42468420    -0.75000
Ni1507     Ni  0.90840871  0.78633837  0.41155032     1.25400
Ni1508     Ni  0.93902945  0.74909499  0.43094510     1.25400
C1509       C  0.86136939  0.70222654  0.41095087     0.87300
C1510       C  0.99005150  0.83198928  0.43046321     0.87200
C1511       C  0.93910212  0.76141150  0.35527372     0.87200
C1512       C  0.89497055  0.76867095  0.48412670     0.87400
loop_ 
_geom_bond_atom_site_label_1 
_geom_bond_atom_site_label_2 
_geom_bond_distance 
_geom_bond_site_symmetry_2 
_ccdc_geom_bond_type 
O1           Ni9   1.928       .  S
O1           C11   1.288       .  A
O2           Ni9   1.937       .  S
O2           C12   1.289       .  A
O3           Ni9   1.848       .  S
O3           C13   1.271       .  A
O4           Ni9   1.875       .  S
O4           C14   1.261       .  A
O5          Ni10   1.999       .  S
O5           C14   1.308       .  A
O6          Ni10   1.990       .  S
O6           C13   1.292       .  A
O7          Ni10   1.905       .  S
O7           C12   1.273       .  A
O8          Ni10   1.853       .  S
O8           C11   1.262       .  A
Ni9         Ni10   2.383       .  S
C11         C543   1.426       .  S
C12          C40   1.472       .  S
C13          C27   1.492   1_554  S
C14         C154   1.489       .  S
O15         Ni23   1.928       .  S
O15          C25   1.288       .  A
O16         Ni23   1.938       .  S
O16          C26   1.289       .  A
O17         Ni23   1.848       .  S
O17          C27   1.270       .  A
O18         Ni23   1.874       .  S
O18          C28   1.261       .  A
O19         Ni24   1.999       .  S
O19          C28   1.308       .  A
O20         Ni24   1.990       .  S
O20          C27   1.292       .  A
O21         Ni24   1.905       .  S
O21          C26   1.273       .  A
O22         Ni24   1.852       .  S
O22          C25   1.262       .  A
Ni23        Ni24   2.383       .  S
C25          C53   1.426       .  S
C26         C558   1.472       .  S
C28          C70   1.489       .  S
O29         Ni37   1.928       .  S
O29          C39   1.288       .  A
O30         Ni37   1.938       .  S
O30          C40   1.289       .  A
O31         Ni37   1.849       .  S
O31          C41   1.270       .  A
O32         Ni37   1.875       .  S
O32          C42   1.261       .  A
O33         Ni38   1.999       .  S
O33          C42   1.308       .  A
O34         Ni38   1.990       .  S
O34          C41   1.292       .  A
O35         Ni38   1.905       .  S
O35          C40   1.273       .  A
O36         Ni38   1.852       .  S
O36          C39   1.262       .  A
Ni37        Ni38   2.383       .  S
C39        C1019   1.426   1_455  S
C41          C55   1.492   1_554  S
C42         C126   1.490       .  S
O43         Ni51   1.928       .  S
O43          C53   1.288       .  A
O44         Ni51   1.937       .  S
O44          C54   1.289       .  A
O45         Ni51   1.849       .  S
O45          C55   1.271       .  A
O46         Ni51   1.875       .  S
O46          C56   1.261       .  A
O47         Ni52   1.999       .  S
O47          C56   1.307       .  A
O48         Ni52   1.990       .  S
O48          C55   1.292       .  A
O49         Ni52   1.906       .  S
O49          C54   1.273       .  A
O50         Ni52   1.853       .  S
O50          C53   1.262       .  A
Ni51        Ni52   2.383       .  S
C54        C1034   1.472   1_455  S
C56          C98   1.490       .  S
O57         Ni65   1.928       .  S
O57          C67   1.288       .  A
O58         Ni65   1.937       .  S
O58          C68   1.289       .  A
O59         Ni65   1.848       .  S
O59          C69   1.270       .  A
O60         Ni65   1.874       .  S
O60          C70   1.261       .  A
O61         Ni66   1.999       .  S
O61          C70   1.308       .  A
O62         Ni66   1.990       .  S
O62          C69   1.292       .  A
O63         Ni66   1.905       .  S
O63          C68   1.273       .  A
O64         Ni66   1.852       .  S
O64          C67   1.262       .  A
Ni65        Ni66   2.383       .  S
C67          C95   1.426       .  S
C68         C432   1.472   1_545  S
C69          C83   1.492       .  S
O71         Ni79   1.928       .  S
O71          C81   1.288       .  A
O72         Ni79   1.937       .  S
O72          C82   1.289       .  A
O73         Ni79   1.848       .  S
O73          C83   1.271       .  A
O74         Ni79   1.875       .  S
O74          C84   1.261       .  A
O75         Ni80   1.999       .  S
O75          C84   1.307       .  A
O76         Ni80   1.990       .  S
O76          C83   1.292       .  A
O77         Ni80   1.905       .  S
O77          C82   1.273       .  A
O78         Ni80   1.853       .  S
O78          C81   1.262       .  A
Ni79        Ni80   2.383       .  S
C81         C445   1.426   1_545  S
C82         C110   1.472       .  S
C84         C168   1.489       .  S
O85         Ni93   1.928       .  S
O85          C95   1.288       .  A
O86         Ni93   1.937       .  S
O86          C96   1.289       .  A
O87         Ni93   1.849       .  S
O87          C97   1.271       .  A
O88         Ni93   1.875       .  S
O88          C98   1.261       .  A
O89         Ni94   1.999       .  S
O89          C98   1.308       .  A
O90         Ni94   1.990       .  S
O90          C97   1.292       .  A
O91         Ni94   1.905       .  S
O91          C96   1.273       .  A
O92         Ni94   1.852       .  S
O92          C95   1.262       .  A
Ni93        Ni94   2.383       .  S
C96         C236   1.472       .  S
C97         C111   1.492       .  S
O99        Ni107   1.928       .  S
O99         C109   1.288       .  A
O100       Ni107   1.937       .  S
O100        C110   1.289       .  A
O101       Ni107   1.849       .  S
O101        C111   1.271       .  A
O102       Ni107   1.875       .  S
O102        C112   1.261       .  A
O103       Ni108   1.999       .  S
O103        C112   1.308       .  A
O104       Ni108   1.990       .  S
O104        C111   1.292       .  A
O105       Ni108   1.905       .  S
O105        C110   1.273       .  A
O106       Ni108   1.852       .  S
O106        C109   1.262       .  A
Ni107      Ni108   2.383       .  S
C109        C249   1.426       .  S
C112        C140   1.490       .  S
O113       Ni121   1.928       .  S
O113        C123   1.288       .  A
O114       Ni121   1.937       .  S
O114        C124   1.289       .  A
O115       Ni121   1.848       .  S
O115        C125   1.270       .  A
O116       Ni121   1.874       .  S
O116        C126   1.261       .  A
O117       Ni122   2.000       .  S
O117        C126   1.308       .  A
O118       Ni122   1.990       .  S
O118        C125   1.292       .  A
O119       Ni122   1.905       .  S
O119        C124   1.273       .  A
O120       Ni122   1.852       .  S
O120        C123   1.262       .  A
Ni121      Ni122   2.383       .  S
C123       C1159   1.426   1_455  S
C124        C320   1.472       .  S
C125        C139   1.492       .  S
O127       Ni135   1.928       .  S
O127        C137   1.288       .  A
O128       Ni135   1.937       .  S
O128        C138   1.289       .  A
O129       Ni135   1.848       .  S
O129        C139   1.270       .  A
O130       Ni135   1.875       .  S
O130        C140   1.261       .  A
O131       Ni136   2.000       .  S
O131        C140   1.308       .  A
O132       Ni136   1.990       .  S
O132        C139   1.292       .  A
O133       Ni136   1.905       .  S
O133        C138   1.273       .  A
O134       Ni136   1.852       .  S
O134        C137   1.262       .  A
Ni135      Ni136   2.383       .  S
C137        C333   1.426       .  S
C138       C1174   1.472   1_455  S
O141       Ni149   1.928       .  S
O141        C151   1.288       .  A
O142       Ni149   1.937       .  S
O142        C152   1.289       .  A
O143       Ni149   1.849       .  S
O143        C153   1.271       .  A
O144       Ni149   1.875       .  S
O144        C154   1.261       .  A
O145       Ni150   1.999       .  S
O145        C154   1.307       .  A
O146       Ni150   1.990       .  S
O146        C153   1.292       .  A
O147       Ni150   1.905       .  S
O147        C152   1.273       .  A
O148       Ni150   1.852       .  S
O148        C151   1.262       .  A
Ni149      Ni150   2.383       .  S
C151        C627   1.426       .  S
C152        C460   1.472   1_545  S
C153        C167   1.492       .  S
O155       Ni163   1.928       .  S
O155        C165   1.288       .  A
O156       Ni163   1.937       .  S
O156        C166   1.289       .  A
O157       Ni163   1.849       .  S
O157        C167   1.271       .  A
O158       Ni163   1.875       .  S
O158        C168   1.261       .  A
O159       Ni164   1.999       .  S
O159        C168   1.307       .  A
O160       Ni164   1.990       .  S
O160        C167   1.292       .  A
O161       Ni164   1.905       .  S
O161        C166   1.273       .  A
O162       Ni164   1.852       .  S
O162        C165   1.262       .  A
Ni163      Ni164   2.383       .  S
C165        C473   1.426   1_545  S
C166        C642   1.472       .  S
O169       Ni177   1.928       .  S
O169        C179   1.288       .  A
O170       Ni177   1.937       .  S
O170        C180   1.289       .  A
O171       Ni177   1.848       .  S
O171        C181   1.271       .  A
O172       Ni177   1.875       .  S
O172        C182   1.261       .  A
O173       Ni178   1.999       .  S
O173        C182   1.307       .  A
O174       Ni178   1.990       .  S
O174        C181   1.292       .  A
O175       Ni178   1.905       .  S
O175        C180   1.273       .  A
O176       Ni178   1.853       .  S
O176        C179   1.262       .  A
Ni177      Ni178   2.383       .  S
C179        C711   1.426       .  S
C180        C208   1.472       .  S
C181        C195   1.492   1_554  S
C182        C322   1.489       .  S
O183       Ni191   1.928       .  S
O183        C193   1.288       .  A
O184       Ni191   1.938       .  S
O184        C194   1.289       .  A
O185       Ni191   1.848       .  S
O185        C195   1.270       .  A
O186       Ni191   1.874       .  S
O186        C196   1.261       .  A
O187       Ni192   1.999       .  S
O187        C196   1.308       .  A
O188       Ni192   1.990       .  S
O188        C195   1.292       .  A
O189       Ni192   1.905       .  S
O189        C194   1.273       .  A
O190       Ni192   1.852       .  S
O190        C193   1.262       .  A
Ni191      Ni192   2.383       .  S
C193        C221   1.426       .  S
C194        C726   1.472       .  S
C196        C238   1.489       .  S
O197       Ni205   1.928       .  S
O197        C207   1.288       .  A
O198       Ni205   1.938       .  S
O198        C208   1.289       .  A
O199       Ni205   1.849       .  S
O199        C209   1.270       .  A
O200       Ni205   1.874       .  S
O200        C210   1.261       .  A
O201       Ni206   1.999       .  S
O201        C210   1.308       .  A
O202       Ni206   1.990       .  S
O202        C209   1.292       .  A
O203       Ni206   1.905       .  S
O203        C208   1.273       .  A
O204       Ni206   1.852       .  S
O204        C207   1.262       .  A
Ni205      Ni206   2.383       .  S
C207       C1187   1.426   1_455  S
C209        C223   1.492   1_554  S
C210        C294   1.490       .  S
O211       Ni219   1.928       .  S
O211        C221   1.288       .  A
O212       Ni219   1.937       .  S
O212        C222   1.289       .  A
O213       Ni219   1.849       .  S
O213        C223   1.271       .  A
O214       Ni219   1.875       .  S
O214        C224   1.261       .  A
O215       Ni220   1.999       .  S
O215        C224   1.308       .  A
O216       Ni220   1.990       .  S
O216        C223   1.292       .  A
O217       Ni220   1.906       .  S
O217        C222   1.273       .  A
O218       Ni220   1.853       .  S
O218        C221   1.262       .  A
Ni219      Ni220   2.383       .  S
C222       C1202   1.472   1_455  S
C224        C266   1.490       .  S
O225       Ni233   1.928       .  S
O225        C235   1.288       .  A
O226       Ni233   1.937       .  S
O226        C236   1.289       .  A
O227       Ni233   1.848       .  S
O227        C237   1.270       .  A
O228       Ni233   1.874       .  S
O228        C238   1.261       .  A
O229       Ni234   1.999       .  S
O229        C238   1.308       .  A
O230       Ni234   1.990       .  S
O230        C237   1.292       .  A
O231       Ni234   1.905       .  S
O231        C236   1.273       .  A
O232       Ni234   1.852       .  S
O232        C235   1.262       .  A
Ni233      Ni234   2.383       .  S
C235        C263   1.426       .  S
C237        C251   1.492       .  S
O239       Ni247   1.928       .  S
O239        C249   1.288       .  A
O240       Ni247   1.937       .  S
O240        C250   1.289       .  A
O241       Ni247   1.848       .  S
O241        C251   1.271       .  A
O242       Ni247   1.874       .  S
O242        C252   1.261       .  A
O243       Ni248   1.999       .  S
O243        C252   1.307       .  A
O244       Ni248   1.990       .  S
O244        C251   1.292       .  A
O245       Ni248   1.905       .  S
O245        C250   1.273       .  A
O246       Ni248   1.853       .  S
O246        C249   1.262       .  A
Ni247      Ni248   2.383       .  S
C250        C278   1.472       .  S
C252        C336   1.489       .  S
O253       Ni261   1.928       .  S
O253        C263   1.288       .  A
O254       Ni261   1.937       .  S
O254        C264   1.289       .  A
O255       Ni261   1.849       .  S
O255        C265   1.271       .  A
O256       Ni261   1.875       .  S
O256        C266   1.261       .  A
O257       Ni262   1.999       .  S
O257        C266   1.308       .  A
O258       Ni262   1.990       .  S
O258        C265   1.292       .  A
O259       Ni262   1.905       .  S
O259        C264   1.273       .  A
O260       Ni262   1.852       .  S
O260        C263   1.262       .  A
Ni261      Ni262   2.383       .  S
C264        C404   1.472       .  S
C265        C279   1.492       .  S
O267       Ni275   1.928       .  S
O267        C277   1.288       .  A
O268       Ni275   1.937       .  S
O268        C278   1.289       .  A
O269       Ni275   1.849       .  S
O269        C279   1.271       .  A
O270       Ni275   1.875       .  S
O270        C280   1.261       .  A
O271       Ni276   1.999       .  S
O271        C280   1.308       .  A
O272       Ni276   1.990       .  S
O272        C279   1.292       .  A
O273       Ni276   1.905       .  S
O273        C278   1.273       .  A
O274       Ni276   1.852       .  S
O274        C277   1.262       .  A
Ni275      Ni276   2.383       .  S
C277        C417   1.426       .  S
C280        C308   1.490       .  S
O281       Ni289   1.928       .  S
O281        C291   1.288       .  A
O282       Ni289   1.937       .  S
O282        C292   1.289       .  A
O283       Ni289   1.848       .  S
O283        C293   1.270       .  A
O284       Ni289   1.874       .  S
O284        C294   1.261       .  A
O285       Ni290   2.000       .  S
O285        C294   1.308       .  A
O286       Ni290   1.990       .  S
O286        C293   1.292       .  A
O287       Ni290   1.905       .  S
O287        C292   1.273       .  A
O288       Ni290   1.852       .  S
O288        C291   1.262       .  A
Ni289      Ni290   2.383       .  S
C291       C1327   1.426   1_455  S
C292        C488   1.472       .  S
C293        C307   1.492       .  S
O295       Ni303   1.928       .  S
O295        C305   1.288       .  A
O296       Ni303   1.937       .  S
O296        C306   1.289       .  A
O297       Ni303   1.848       .  S
O297        C307   1.270       .  A
O298       Ni303   1.875       .  S
O298        C308   1.261       .  A
O299       Ni304   2.000       .  S
O299        C308   1.308       .  A
O300       Ni304   1.990       .  S
O300        C307   1.292       .  A
O301       Ni304   1.905       .  S
O301        C306   1.273       .  A
O302       Ni304   1.853       .  S
O302        C305   1.262       .  A
Ni303      Ni304   2.383       .  S
C305        C501   1.426       .  S
C306       C1342   1.472   1_455  S
O309       Ni317   1.928       .  S
O309        C319   1.288       .  A
O310       Ni317   1.937       .  S
O310        C320   1.289       .  A
O311       Ni317   1.849       .  S
O311        C321   1.271       .  A
O312       Ni317   1.875       .  S
O312        C322   1.261       .  A
O313       Ni318   1.999       .  S
O313        C322   1.307       .  A
O314       Ni318   1.990       .  S
O314        C321   1.292       .  A
O315       Ni318   1.905       .  S
O315        C320   1.273       .  A
O316       Ni318   1.852       .  S
O316        C319   1.262       .  A
Ni317      Ni318   2.383       .  S
C319        C795   1.426       .  S
C321        C335   1.492       .  S
O323       Ni331   1.928       .  S
O323        C333   1.288       .  A
O324       Ni331   1.937       .  S
O324        C334   1.289       .  A
O325       Ni331   1.849       .  S
O325        C335   1.271       .  A
O326       Ni331   1.875       .  S
O326        C336   1.261       .  A
O327       Ni332   1.999       .  S
O327        C336   1.307       .  A
O328       Ni332   1.990       .  S
O328        C335   1.292       .  A
O329       Ni332   1.905       .  S
O329        C334   1.273       .  A
O330       Ni332   1.852       .  S
O330        C333   1.262       .  A
Ni331      Ni332   2.383       .  S
C334        C810   1.472       .  S
O337       Ni345   1.928       .  S
O337        C347   1.288       .  A
O338       Ni345   1.937       .  S
O338        C348   1.289       .  A
O339       Ni345   1.848       .  S
O339        C349   1.271       .  A
O340       Ni345   1.875       .  S
O340        C350   1.261       .  A
O341       Ni346   1.999       .  S
O341        C350   1.308       .  A
O342       Ni346   1.990       .  S
O342        C349   1.292       .  A
O343       Ni346   1.905       .  S
O343        C348   1.273       .  A
O344       Ni346   1.853       .  S
O344        C347   1.262       .  A
Ni345      Ni346   2.383       .  S
C347        C879   1.426       .  S
C348        C376   1.472       .  S
C349        C363   1.492   1_554  S
C350        C490   1.489       .  S
O351       Ni359   1.928       .  S
O351        C361   1.288       .  A
O352       Ni359   1.938       .  S
O352        C362   1.289       .  A
O353       Ni359   1.848       .  S
O353        C363   1.270       .  A
O354       Ni359   1.874       .  S
O354        C364   1.261       .  A
O355       Ni360   1.999       .  S
O355        C364   1.308       .  A
O356       Ni360   1.990       .  S
O356        C363   1.292       .  A
O357       Ni360   1.905       .  S
O357        C362   1.273       .  A
O358       Ni360   1.852       .  S
O358        C361   1.262       .  A
Ni359      Ni360   2.383       .  S
C361        C389   1.426       .  S
C362        C894   1.472       .  S
C364        C406   1.489       .  S
O365       Ni373   1.928       .  S
O365        C375   1.288       .  A
O366       Ni373   1.938       .  S
O366        C376   1.289       .  A
O367       Ni373   1.849       .  S
O367        C377   1.270       .  A
O368       Ni373   1.874       .  S
O368        C378   1.261       .  A
O369       Ni374   1.999       .  S
O369        C378   1.308       .  A
O370       Ni374   1.990       .  S
O370        C377   1.292       .  A
O371       Ni374   1.905       .  S
O371        C376   1.273       .  A
O372       Ni374   1.852       .  S
O372        C375   1.262       .  A
Ni373      Ni374   2.383       .  S
C375       C1355   1.426   1_455  S
C377        C391   1.492   1_554  S
C378        C462   1.489       .  S
O379       Ni387   1.928       .  S
O379        C389   1.288       .  A
O380       Ni387   1.937       .  S
O380        C390   1.289       .  A
O381       Ni387   1.849       .  S
O381        C391   1.271       .  A
O382       Ni387   1.875       .  S
O382        C392   1.261       .  A
O383       Ni388   1.999       .  S
O383        C392   1.308       .  A
O384       Ni388   1.990       .  S
O384        C391   1.292       .  A
O385       Ni388   1.906       .  S
O385        C390   1.273       .  A
O386       Ni388   1.853       .  S
O386        C389   1.262       .  A
Ni387      Ni388   2.383       .  S
C390       C1370   1.472   1_455  S
C392        C434   1.490       .  S
O393       Ni401   1.928       .  S
O393        C403   1.288       .  A
O394       Ni401   1.937       .  S
O394        C404   1.289       .  A
O395       Ni401   1.848       .  S
O395        C405   1.270       .  A
O396       Ni401   1.874       .  S
O396        C406   1.261       .  A
O397       Ni402   1.999       .  S
O397        C406   1.307       .  A
O398       Ni402   1.990       .  S
O398        C405   1.292       .  A
O399       Ni402   1.905       .  S
O399        C404   1.273       .  A
O400       Ni402   1.852       .  S
O400        C403   1.262       .  A
Ni401      Ni402   2.383       .  S
C403        C431   1.426       .  S
C405        C419   1.492       .  S
O407       Ni415   1.928       .  S
O407        C417   1.288       .  A
O408       Ni415   1.937       .  S
O408        C418   1.289       .  A
O409       Ni415   1.848       .  S
O409        C419   1.271       .  A
O410       Ni415   1.874       .  S
O410        C420   1.261       .  A
O411       Ni416   1.999       .  S
O411        C420   1.307       .  A
O412       Ni416   1.990       .  S
O412        C419   1.292       .  A
O413       Ni416   1.905       .  S
O413        C418   1.273       .  A
O414       Ni416   1.853       .  S
O414        C417   1.262       .  A
Ni415      Ni416   2.383       .  S
C418        C446   1.472       .  S
C420        C504   1.489       .  S
O421       Ni429   1.928       .  S
O421        C431   1.288       .  A
O422       Ni429   1.937       .  S
O422        C432   1.289       .  A
O423       Ni429   1.849       .  S
O423        C433   1.271       .  A
O424       Ni429   1.875       .  S
O424        C434   1.261       .  A
O425       Ni430   1.999       .  S
O425        C434   1.308       .  A
O426       Ni430   1.990       .  S
O426        C433   1.292       .  A
O427       Ni430   1.905       .  S
O427        C432   1.273       .  A
O428       Ni430   1.852       .  S
O428        C431   1.262       .  A
Ni429      Ni430   2.383       .  S
C433        C447   1.492       .  S
O435       Ni443   1.928       .  S
O435        C445   1.288       .  A
O436       Ni443   1.937       .  S
O436        C446   1.289       .  A
O437       Ni443   1.849       .  S
O437        C447   1.271       .  A
O438       Ni443   1.875       .  S
O438        C448   1.261       .  A
O439       Ni444   1.999       .  S
O439        C448   1.308       .  A
O440       Ni444   1.990       .  S
O440        C447   1.292       .  A
O441       Ni444   1.905       .  S
O441        C446   1.273       .  A
O442       Ni444   1.852       .  S
O442        C445   1.262       .  A
Ni443      Ni444   2.383       .  S
C448        C476   1.490       .  S
O449       Ni457   1.928       .  S
O449        C459   1.288       .  A
O450       Ni457   1.937       .  S
O450        C460   1.289       .  A
O451       Ni457   1.848       .  S
O451        C461   1.270       .  A
O452       Ni457   1.874       .  S
O452        C462   1.261       .  A
O453       Ni458   2.000       .  S
O453        C462   1.308       .  A
O454       Ni458   1.990       .  S
O454        C461   1.292       .  A
O455       Ni458   1.905       .  S
O455        C460   1.273       .  A
O456       Ni458   1.852       .  S
O456        C459   1.262       .  A
Ni457      Ni458   2.383       .  S
C459       C1495   1.426   1_455  S
C461        C475   1.492       .  S
O463       Ni471   1.928       .  S
O463        C473   1.288       .  A
O464       Ni471   1.937       .  S
O464        C474   1.289       .  A
O465       Ni471   1.848       .  S
O465        C475   1.270       .  A
O466       Ni471   1.875       .  S
O466        C476   1.261       .  A
O467       Ni472   2.000       .  S
O467        C476   1.308       .  A
O468       Ni472   1.990       .  S
O468        C475   1.292       .  A
O469       Ni472   1.905       .  S
O469        C474   1.273       .  A
O470       Ni472   1.853       .  S
O470        C473   1.262       .  A
Ni471      Ni472   2.383       .  S
C474       C1510   1.472   1_455  S
O477       Ni485   1.928       .  S
O477        C487   1.288       .  A
O478       Ni485   1.937       .  S
O478        C488   1.289       .  A
O479       Ni485   1.849       .  S
O479        C489   1.271       .  A
O480       Ni485   1.875       .  S
O480        C490   1.261       .  A
O481       Ni486   1.999       .  S
O481        C490   1.307       .  A
O482       Ni486   1.990       .  S
O482        C489   1.292       .  A
O483       Ni486   1.905       .  S
O483        C488   1.273       .  A
O484       Ni486   1.852       .  S
O484        C487   1.262       .  A
Ni485      Ni486   2.383       .  S
C487        C963   1.426       .  S
C489        C503   1.492       .  S
O491       Ni499   1.928       .  S
O491        C501   1.288       .  A
O492       Ni499   1.937       .  S
O492        C502   1.289       .  A
O493       Ni499   1.849       .  S
O493        C503   1.271       .  A
O494       Ni499   1.875       .  S
O494        C504   1.261       .  A
O495       Ni500   1.999       .  S
O495        C504   1.307       .  A
O496       Ni500   1.990       .  S
O496        C503   1.292       .  A
O497       Ni500   1.905       .  S
O497        C502   1.273       .  A
O498       Ni500   1.852       .  S
O498        C501   1.262       .  A
Ni499      Ni500   2.383       .  S
C502        C978   1.472       .  S
O505       Ni513   1.928       .  S
O505        C515   1.288       .  A
O506       Ni513   1.937       .  S
O506        C516   1.289       .  A
O507       Ni513   1.848       .  S
O507        C517   1.271       .  A
O508       Ni513   1.875       .  S
O508        C518   1.261       .  A
O509       Ni514   1.999       .  S
O509        C518   1.307       .  A
O510       Ni514   1.990       .  S
O510        C517   1.292       .  A
O511       Ni514   1.905       .  S
O511        C516   1.273       .  A
O512       Ni514   1.853       .  S
O512        C515   1.262       .  A
Ni513      Ni514   2.383       .  S
C515       C1047   1.426       .  S
C516        C544   1.472       .  S
C517        C531   1.492   1_554  S
C518        C658   1.489       .  S
O519       Ni527   1.928       .  S
O519        C529   1.288       .  A
O520       Ni527   1.938       .  S
O520        C530   1.289       .  A
O521       Ni527   1.848       .  S
O521        C531   1.270       .  A
O522       Ni527   1.874       .  S
O522        C532   1.261       .  A
O523       Ni528   1.999       .  S
O523        C532   1.308       .  A
O524       Ni528   1.990       .  S
O524        C531   1.292       .  A
O525       Ni528   1.905       .  S
O525        C530   1.273       .  A
O526       Ni528   1.852       .  S
O526        C529   1.262       .  A
Ni527      Ni528   2.383       .  S
C529        C557   1.426       .  S
C530       C1062   1.472       .  S
C532        C574   1.489       .  S
O533       Ni541   1.928       .  S
O533        C543   1.288       .  A
O534       Ni541   1.938       .  S
O534        C544   1.289       .  A
O535       Ni541   1.849       .  S
O535        C545   1.270       .  A
O536       Ni541   1.875       .  S
O536        C546   1.261       .  A
O537       Ni542   1.999       .  S
O537        C546   1.308       .  A
O538       Ni542   1.990       .  S
O538        C545   1.292       .  A
O539       Ni542   1.905       .  S
O539        C544   1.273       .  A
O540       Ni542   1.852       .  S
O540        C543   1.262       .  A
Ni541      Ni542   2.383       .  S
C545        C559   1.492   1_554  S
C546        C630   1.490       .  S
O547       Ni555   1.928       .  S
O547        C557   1.288       .  A
O548       Ni555   1.937       .  S
O548        C558   1.289       .  A
O549       Ni555   1.849       .  S
O549        C559   1.271       .  A
O550       Ni555   1.875       .  S
O550        C560   1.261       .  A
O551       Ni556   1.999       .  S
O551        C560   1.307       .  A
O552       Ni556   1.990       .  S
O552        C559   1.292       .  A
O553       Ni556   1.906       .  S
O553        C558   1.273       .  A
O554       Ni556   1.853       .  S
O554        C557   1.262       .  A
Ni555      Ni556   2.383       .  S
C560        C602   1.490       .  S
O561       Ni569   1.928       .  S
O561        C571   1.288       .  A
O562       Ni569   1.937       .  S
O562        C572   1.289       .  A
O563       Ni569   1.848       .  S
O563        C573   1.270       .  A
O564       Ni569   1.874       .  S
O564        C574   1.261       .  A
O565       Ni570   1.999       .  S
O565        C574   1.308       .  A
O566       Ni570   1.990       .  S
O566        C573   1.292       .  A
O567       Ni570   1.905       .  S
O567        C572   1.273       .  A
O568       Ni570   1.852       .  S
O568        C571   1.262       .  A
Ni569      Ni570   2.383       .  S
C571        C599   1.426       .  S
C572        C936   1.472   1_545  S
C573        C587   1.492       .  S
O575       Ni583   1.928       .  S
O575        C585   1.288       .  A
O576       Ni583   1.937       .  S
O576        C586   1.289       .  A
O577       Ni583   1.848       .  S
O577        C587   1.271       .  A
O578       Ni583   1.875       .  S
O578        C588   1.261       .  A
O579       Ni584   1.999       .  S
O579        C588   1.307       .  A
O580       Ni584   1.990       .  S
O580        C587   1.292       .  A
O581       Ni584   1.905       .  S
O581        C586   1.273       .  A
O582       Ni584   1.853       .  S
O582        C585   1.262       .  A
Ni583      Ni584   2.383       .  S
C585        C949   1.426   1_545  S
C586        C614   1.472       .  S
C588        C672   1.489       .  S
O589       Ni597   1.928       .  S
O589        C599   1.288       .  A
O590       Ni597   1.937       .  S
O590        C600   1.289       .  A
O591       Ni597   1.849       .  S
O591        C601   1.271       .  A
O592       Ni597   1.875       .  S
O592        C602   1.261       .  A
O593       Ni598   1.999       .  S
O593        C602   1.308       .  A
O594       Ni598   1.990       .  S
O594        C601   1.292       .  A
O595       Ni598   1.905       .  S
O595        C600   1.273       .  A
O596       Ni598   1.852       .  S
O596        C599   1.262       .  A
Ni597      Ni598   2.383       .  S
C600        C740   1.472       .  S
C601        C615   1.492       .  S
O603       Ni611   1.928       .  S
O603        C613   1.288       .  A
O604       Ni611   1.937       .  S
O604        C614   1.289       .  A
O605       Ni611   1.849       .  S
O605        C615   1.271       .  A
O606       Ni611   1.875       .  S
O606        C616   1.261       .  A
O607       Ni612   1.999       .  S
O607        C616   1.308       .  A
O608       Ni612   1.990       .  S
O608        C615   1.292       .  A
O609       Ni612   1.905       .  S
O609        C614   1.273       .  A
O610       Ni612   1.852       .  S
O610        C613   1.262       .  A
Ni611      Ni612   2.383       .  S
C613        C753   1.426       .  S
C616        C644   1.490       .  S
O617       Ni625   1.928       .  S
O617        C627   1.288       .  A
O618       Ni625   1.937       .  S
O618        C628   1.289       .  A
O619       Ni625   1.848       .  S
O619        C629   1.270       .  A
O620       Ni625   1.874       .  S
O620        C630   1.261       .  A
O621       Ni626   2.000       .  S
O621        C630   1.308       .  A
O622       Ni626   1.990       .  S
O622        C629   1.292       .  A
O623       Ni626   1.905       .  S
O623        C628   1.273       .  A
O624       Ni626   1.852       .  S
O624        C627   1.262       .  A
Ni625      Ni626   2.383       .  S
C628        C824   1.472       .  S
C629        C643   1.492       .  S
O631       Ni639   1.928       .  S
O631        C641   1.288       .  A
O632       Ni639   1.937       .  S
O632        C642   1.289       .  A
O633       Ni639   1.848       .  S
O633        C643   1.270       .  A
O634       Ni639   1.875       .  S
O634        C644   1.261       .  A
O635       Ni640   2.000       .  S
O635        C644   1.308       .  A
O636       Ni640   1.990       .  S
O636        C643   1.292       .  A
O637       Ni640   1.905       .  S
O637        C642   1.273       .  A
O638       Ni640   1.852       .  S
O638        C641   1.262       .  A
Ni639      Ni640   2.383       .  S
C641        C837   1.426       .  S
O645       Ni653   1.928       .  S
O645        C655   1.288       .  A
O646       Ni653   1.937       .  S
O646        C656   1.289       .  A
O647       Ni653   1.849       .  S
O647        C657   1.271       .  A
O648       Ni653   1.875       .  S
O648        C658   1.261       .  A
O649       Ni654   1.999       .  S
O649        C658   1.307       .  A
O650       Ni654   1.990       .  S
O650        C657   1.292       .  A
O651       Ni654   1.905       .  S
O651        C656   1.273       .  A
O652       Ni654   1.852       .  S
O652        C655   1.262       .  A
Ni653      Ni654   2.383       .  S
C655       C1131   1.426       .  S
C656        C964   1.472   1_545  S
C657        C671   1.492       .  S
O659       Ni667   1.928       .  S
O659        C669   1.288       .  A
O660       Ni667   1.937       .  S
O660        C670   1.289       .  A
O661       Ni667   1.849       .  S
O661        C671   1.271       .  A
O662       Ni667   1.875       .  S
O662        C672   1.261       .  A
O663       Ni668   1.999       .  S
O663        C672   1.307       .  A
O664       Ni668   1.990       .  S
O664        C671   1.292       .  A
O665       Ni668   1.905       .  S
O665        C670   1.273       .  A
O666       Ni668   1.852       .  S
O666        C669   1.262       .  A
Ni667      Ni668   2.383       .  S
C669        C977   1.426   1_545  S
C670       C1146   1.472       .  S
O673       Ni681   1.928       .  S
O673        C683   1.288       .  A
O674       Ni681   1.937       .  S
O674        C684   1.289       .  A
O675       Ni681   1.848       .  S
O675        C685   1.271       .  A
O676       Ni681   1.875       .  S
O676        C686   1.261       .  A
O677       Ni682   1.999       .  S
O677        C686   1.307       .  A
O678       Ni682   1.990       .  S
O678        C685   1.292       .  A
O679       Ni682   1.905       .  S
O679        C684   1.273       .  A
O680       Ni682   1.853       .  S
O680        C683   1.262       .  A
Ni681      Ni682   2.383       .  S
C683       C1215   1.426       .  S
C684        C712   1.472       .  S
C685        C699   1.492   1_554  S
C686        C826   1.489       .  S
O687       Ni695   1.928       .  S
O687        C697   1.288       .  A
O688       Ni695   1.938       .  S
O688        C698   1.289       .  A
O689       Ni695   1.848       .  S
O689        C699   1.270       .  A
O690       Ni695   1.874       .  S
O690        C700   1.261       .  A
O691       Ni696   1.999       .  S
O691        C700   1.308       .  A
O692       Ni696   1.990       .  S
O692        C699   1.292       .  A
O693       Ni696   1.905       .  S
O693        C698   1.273       .  A
O694       Ni696   1.852       .  S
O694        C697   1.262       .  A
Ni695      Ni696   2.383       .  S
C697        C725   1.426       .  S
C698       C1230   1.472       .  S
C700        C742   1.489       .  S
O701       Ni709   1.928       .  S
O701        C711   1.288       .  A
O702       Ni709   1.938       .  S
O702        C712   1.289       .  A
O703       Ni709   1.849       .  S
O703        C713   1.270       .  A
O704       Ni709   1.874       .  S
O704        C714   1.261       .  A
O705       Ni710   1.999       .  S
O705        C714   1.308       .  A
O706       Ni710   1.990       .  S
O706        C713   1.292       .  A
O707       Ni710   1.905       .  S
O707        C712   1.273       .  A
O708       Ni710   1.852       .  S
O708        C711   1.262       .  A
Ni709      Ni710   2.383       .  S
C713        C727   1.492   1_554  S
C714        C798   1.490       .  S
O715       Ni723   1.928       .  S
O715        C725   1.288       .  A
O716       Ni723   1.937       .  S
O716        C726   1.289       .  A
O717       Ni723   1.849       .  S
O717        C727   1.271       .  A
O718       Ni723   1.875       .  S
O718        C728   1.261       .  A
O719       Ni724   1.999       .  S
O719        C728   1.307       .  A
O720       Ni724   1.990       .  S
O720        C727   1.292       .  A
O721       Ni724   1.906       .  S
O721        C726   1.273       .  A
O722       Ni724   1.853       .  S
O722        C725   1.262       .  A
Ni723      Ni724   2.383       .  S
C728        C770   1.490       .  S
O729       Ni737   1.928       .  S
O729        C739   1.288       .  A
O730       Ni737   1.937       .  S
O730        C740   1.289       .  A
O731       Ni737   1.848       .  S
O731        C741   1.270       .  A
O732       Ni737   1.874       .  S
O732        C742   1.261       .  A
O733       Ni738   1.999       .  S
O733        C742   1.307       .  A
O734       Ni738   1.990       .  S
O734        C741   1.292       .  A
O735       Ni738   1.905       .  S
O735        C740   1.273       .  A
O736       Ni738   1.852       .  S
O736        C739   1.262       .  A
Ni737      Ni738   2.383       .  S
C739        C767   1.426       .  S
C741        C755   1.492       .  S
O743       Ni751   1.928       .  S
O743        C753   1.288       .  A
O744       Ni751   1.937       .  S
O744        C754   1.289       .  A
O745       Ni751   1.848       .  S
O745        C755   1.271       .  A
O746       Ni751   1.874       .  S
O746        C756   1.261       .  A
O747       Ni752   1.999       .  S
O747        C756   1.307       .  A
O748       Ni752   1.990       .  S
O748        C755   1.292       .  A
O749       Ni752   1.905       .  S
O749        C754   1.273       .  A
O750       Ni752   1.853       .  S
O750        C753   1.262       .  A
Ni751      Ni752   2.383       .  S
C754        C782   1.472       .  S
C756        C840   1.489       .  S
O757       Ni765   1.928       .  S
O757        C767   1.288       .  A
O758       Ni765   1.937       .  S
O758        C768   1.289       .  A
O759       Ni765   1.849       .  S
O759        C769   1.271       .  A
O760       Ni765   1.875       .  S
O760        C770   1.261       .  A
O761       Ni766   1.999       .  S
O761        C770   1.308       .  A
O762       Ni766   1.990       .  S
O762        C769   1.292       .  A
O763       Ni766   1.905       .  S
O763        C768   1.273       .  A
O764       Ni766   1.852       .  S
O764        C767   1.262       .  A
Ni765      Ni766   2.383       .  S
C768        C908   1.472       .  S
C769        C783   1.492       .  S
O771       Ni779   1.928       .  S
O771        C781   1.288       .  A
O772       Ni779   1.937       .  S
O772        C782   1.289       .  A
O773       Ni779   1.849       .  S
O773        C783   1.271       .  A
O774       Ni779   1.875       .  S
O774        C784   1.261       .  A
O775       Ni780   1.999       .  S
O775        C784   1.308       .  A
O776       Ni780   1.990       .  S
O776        C783   1.292       .  A
O777       Ni780   1.905       .  S
O777        C782   1.273       .  A
O778       Ni780   1.852       .  S
O778        C781   1.262       .  A
Ni779      Ni780   2.383       .  S
C781        C921   1.426       .  S
C784        C812   1.490       .  S
O785       Ni793   1.928       .  S
O785        C795   1.288       .  A
O786       Ni793   1.937       .  S
O786        C796   1.289       .  A
O787       Ni793   1.848       .  S
O787        C797   1.270       .  A
O788       Ni793   1.875       .  S
O788        C798   1.261       .  A
O789       Ni794   2.000       .  S
O789        C798   1.308       .  A
O790       Ni794   1.990       .  S
O790        C797   1.292       .  A
O791       Ni794   1.905       .  S
O791        C796   1.273       .  A
O792       Ni794   1.852       .  S
O792        C795   1.262       .  A
Ni793      Ni794   2.383       .  S
C796        C992   1.472       .  S
C797        C811   1.492       .  S
O799       Ni807   1.928       .  S
O799        C809   1.288       .  A
O800       Ni807   1.937       .  S
O800        C810   1.289       .  A
O801       Ni807   1.848       .  S
O801        C811   1.270       .  A
O802       Ni807   1.875       .  S
O802        C812   1.261       .  A
O803       Ni808   2.000       .  S
O803        C812   1.308       .  A
O804       Ni808   1.990       .  S
O804        C811   1.292       .  A
O805       Ni808   1.905       .  S
O805        C810   1.273       .  A
O806       Ni808   1.853       .  S
O806        C809   1.262       .  A
Ni807      Ni808   2.383       .  S
C809       C1005   1.426       .  S
O813       Ni821   1.928       .  S
O813        C823   1.288       .  A
O814       Ni821   1.937       .  S
O814        C824   1.289       .  A
O815       Ni821   1.849       .  S
O815        C825   1.271       .  A
O816       Ni821   1.875       .  S
O816        C826   1.261       .  A
O817       Ni822   1.999       .  S
O817        C826   1.307       .  A
O818       Ni822   1.990       .  S
O818        C825   1.292       .  A
O819       Ni822   1.905       .  S
O819        C824   1.273       .  A
O820       Ni822   1.852       .  S
O820        C823   1.262       .  A
Ni821      Ni822   2.383       .  S
C823       C1299   1.426       .  S
C825        C839   1.492       .  S
O827       Ni835   1.928       .  S
O827        C837   1.288       .  A
O828       Ni835   1.937       .  S
O828        C838   1.289       .  A
O829       Ni835   1.849       .  S
O829        C839   1.271       .  A
O830       Ni835   1.875       .  S
O830        C840   1.261       .  A
O831       Ni836   1.999       .  S
O831        C840   1.307       .  A
O832       Ni836   1.990       .  S
O832        C839   1.292       .  A
O833       Ni836   1.905       .  S
O833        C838   1.273       .  A
O834       Ni836   1.852       .  S
O834        C837   1.262       .  A
Ni835      Ni836   2.383       .  S
C838       C1314   1.472       .  S
O841       Ni849   1.928       .  S
O841        C851   1.288       .  A
O842       Ni849   1.937       .  S
O842        C852   1.289       .  A
O843       Ni849   1.848       .  S
O843        C853   1.271       .  A
O844       Ni849   1.875       .  S
O844        C854   1.261       .  A
O845       Ni850   1.999       .  S
O845        C854   1.307       .  A
O846       Ni850   1.990       .  S
O846        C853   1.292       .  A
O847       Ni850   1.905       .  S
O847        C852   1.273       .  A
O848       Ni850   1.853       .  S
O848        C851   1.262       .  A
Ni849      Ni850   2.383       .  S
C851       C1383   1.426       .  S
C852        C880   1.472       .  S
C853        C867   1.492   1_554  S
C854        C994   1.489       .  S
O855       Ni863   1.928       .  S
O855        C865   1.288       .  A
O856       Ni863   1.938       .  S
O856        C866   1.289       .  A
O857       Ni863   1.848       .  S
O857        C867   1.270       .  A
O858       Ni863   1.874       .  S
O858        C868   1.261       .  A
O859       Ni864   1.999       .  S
O859        C868   1.308       .  A
O860       Ni864   1.990       .  S
O860        C867   1.292       .  A
O861       Ni864   1.905       .  S
O861        C866   1.273       .  A
O862       Ni864   1.852       .  S
O862        C865   1.262       .  A
Ni863      Ni864   2.383       .  S
C865        C893   1.426       .  S
C866       C1398   1.472       .  S
C868        C910   1.489       .  S
O869       Ni877   1.928       .  S
O869        C879   1.288       .  A
O870       Ni877   1.938       .  S
O870        C880   1.289       .  A
O871       Ni877   1.849       .  S
O871        C881   1.270       .  A
O872       Ni877   1.874       .  S
O872        C882   1.261       .  A
O873       Ni878   1.999       .  S
O873        C882   1.308       .  A
O874       Ni878   1.990       .  S
O874        C881   1.292       .  A
O875       Ni878   1.905       .  S
O875        C880   1.273       .  A
O876       Ni878   1.852       .  S
O876        C879   1.262       .  A
Ni877      Ni878   2.383       .  S
C881        C895   1.492   1_554  S
C882        C966   1.490       .  S
O883       Ni891   1.928       .  S
O883        C893   1.288       .  A
O884       Ni891   1.937       .  S
O884        C894   1.289       .  A
O885       Ni891   1.849       .  S
O885        C895   1.271       .  A
O886       Ni891   1.875       .  S
O886        C896   1.261       .  A
O887       Ni892   1.999       .  S
O887        C896   1.308       .  A
O888       Ni892   1.990       .  S
O888        C895   1.292       .  A
O889       Ni892   1.906       .  S
O889        C894   1.273       .  A
O890       Ni892   1.853       .  S
O890        C893   1.262       .  A
Ni891      Ni892   2.383       .  S
C896        C938   1.490       .  S
O897       Ni905   1.928       .  S
O897        C907   1.288       .  A
O898       Ni905   1.937       .  S
O898        C908   1.289       .  A
O899       Ni905   1.848       .  S
O899        C909   1.270       .  A
O900       Ni905   1.874       .  S
O900        C910   1.261       .  A
O901       Ni906   1.999       .  S
O901        C910   1.308       .  A
O902       Ni906   1.990       .  S
O902        C909   1.292       .  A
O903       Ni906   1.905       .  S
O903        C908   1.273       .  A
O904       Ni906   1.852       .  S
O904        C907   1.262       .  A
Ni905      Ni906   2.383       .  S
C907        C935   1.426       .  S
C909        C923   1.492       .  S
O911       Ni919   1.928       .  S
O911        C921   1.288       .  A
O912       Ni919   1.937       .  S
O912        C922   1.289       .  A
O913       Ni919   1.848       .  S
O913        C923   1.271       .  A
O914       Ni919   1.874       .  S
O914        C924   1.261       .  A
O915       Ni920   1.999       .  S
O915        C924   1.307       .  A
O916       Ni920   1.990       .  S
O916        C923   1.292       .  A
O917       Ni920   1.905       .  S
O917        C922   1.273       .  A
O918       Ni920   1.853       .  S
O918        C921   1.262       .  A
Ni919      Ni920   2.383       .  S
C922        C950   1.472       .  S
C924       C1008   1.489       .  S
O925       Ni933   1.928       .  S
O925        C935   1.288       .  A
O926       Ni933   1.937       .  S
O926        C936   1.289       .  A
O927       Ni933   1.849       .  S
O927        C937   1.271       .  A
O928       Ni933   1.875       .  S
O928        C938   1.261       .  A
O929       Ni934   1.999       .  S
O929        C938   1.308       .  A
O930       Ni934   1.990       .  S
O930        C937   1.292       .  A
O931       Ni934   1.905       .  S
O931        C936   1.273       .  A
O932       Ni934   1.852       .  S
O932        C935   1.262       .  A
Ni933      Ni934   2.383       .  S
C937        C951   1.492       .  S
O939       Ni947   1.928       .  S
O939        C949   1.288       .  A
O940       Ni947   1.937       .  S
O940        C950   1.289       .  A
O941       Ni947   1.849       .  S
O941        C951   1.270       .  A
O942       Ni947   1.875       .  S
O942        C952   1.261       .  A
O943       Ni948   1.999       .  S
O943        C952   1.308       .  A
O944       Ni948   1.990       .  S
O944        C951   1.292       .  A
O945       Ni948   1.905       .  S
O945        C950   1.273       .  A
O946       Ni948   1.852       .  S
O946        C949   1.262       .  A
Ni947      Ni948   2.383       .  S
C952        C980   1.490       .  S
O953       Ni961   1.928       .  S
O953        C963   1.288       .  A
O954       Ni961   1.937       .  S
O954        C964   1.289       .  A
O955       Ni961   1.848       .  S
O955        C965   1.270       .  A
O956       Ni961   1.874       .  S
O956        C966   1.261       .  A
O957       Ni962   2.000       .  S
O957        C966   1.308       .  A
O958       Ni962   1.990       .  S
O958        C965   1.292       .  A
O959       Ni962   1.905       .  S
O959        C964   1.273       .  A
O960       Ni962   1.852       .  S
O960        C963   1.262       .  A
Ni961      Ni962   2.383       .  S
C965        C979   1.492       .  S
O967       Ni975   1.928       .  S
O967        C977   1.288       .  A
O968       Ni975   1.937       .  S
O968        C978   1.289       .  A
O969       Ni975   1.848       .  S
O969        C979   1.270       .  A
O970       Ni975   1.875       .  S
O970        C980   1.261       .  A
O971       Ni976   2.000       .  S
O971        C980   1.308       .  A
O972       Ni976   1.990       .  S
O972        C979   1.292       .  A
O973       Ni976   1.905       .  S
O973        C978   1.273       .  A
O974       Ni976   1.853       .  S
O974        C977   1.262       .  A
Ni975      Ni976   2.383       .  S
O981       Ni989   1.928       .  S
O981        C991   1.288       .  A
O982       Ni989   1.937       .  S
O982        C992   1.289       .  A
O983       Ni989   1.849       .  S
O983        C993   1.271       .  A
O984       Ni989   1.875       .  S
O984        C994   1.261       .  A
O985       Ni990   1.999       .  S
O985        C994   1.307       .  A
O986       Ni990   1.990       .  S
O986        C993   1.292       .  A
O987       Ni990   1.905       .  S
O987        C992   1.273       .  A
O988       Ni990   1.852       .  S
O988        C991   1.262       .  A
Ni989      Ni990   2.383       .  S
C991       C1467   1.426       .  S
C993       C1007   1.492       .  S
O995      Ni1003   1.928       .  S
O995       C1005   1.288       .  A
O996      Ni1003   1.937       .  S
O996       C1006   1.289       .  A
O997      Ni1003   1.849       .  S
O997       C1007   1.271       .  A
O998      Ni1003   1.875       .  S
O998       C1008   1.261       .  A
O999      Ni1004   1.999       .  S
O999       C1008   1.307       .  A
O1000     Ni1004   1.990       .  S
O1000      C1007   1.292       .  A
O1001     Ni1004   1.905       .  S
O1001      C1006   1.273       .  A
O1002     Ni1004   1.852       .  S
O1002      C1005   1.262       .  A
Ni1003    Ni1004   2.383       .  S
C1006      C1482   1.472       .  S
O1009     Ni1017   1.928       .  S
O1009      C1019   1.288       .  A
O1010     Ni1017   1.937       .  S
O1010      C1020   1.289       .  A
O1011     Ni1017   1.848       .  S
O1011      C1021   1.271       .  A
O1012     Ni1017   1.875       .  S
O1012      C1022   1.261       .  A
O1013     Ni1018   1.999       .  S
O1013      C1022   1.308       .  A
O1014     Ni1018   1.990       .  S
O1014      C1021   1.292       .  A
O1015     Ni1018   1.905       .  S
O1015      C1020   1.273       .  A
O1016     Ni1018   1.853       .  S
O1016      C1019   1.262       .  A
Ni1017    Ni1018   2.383       .  S
C1020      C1048   1.472       .  S
C1021      C1035   1.492   1_554  S
C1022      C1162   1.489       .  S
O1023     Ni1031   1.928       .  S
O1023      C1033   1.288       .  A
O1024     Ni1031   1.938       .  S
O1024      C1034   1.289       .  A
O1025     Ni1031   1.848       .  S
O1025      C1035   1.270       .  A
O1026     Ni1031   1.874       .  S
O1026      C1036   1.261       .  A
O1027     Ni1032   1.999       .  S
O1027      C1036   1.308       .  A
O1028     Ni1032   1.990       .  S
O1028      C1035   1.292       .  A
O1029     Ni1032   1.905       .  S
O1029      C1034   1.273       .  A
O1030     Ni1032   1.852       .  S
O1030      C1033   1.262       .  A
Ni1031    Ni1032   2.383       .  S
C1033      C1061   1.426       .  S
C1036      C1078   1.489       .  S
O1037     Ni1045   1.928       .  S
O1037      C1047   1.288       .  A
O1038     Ni1045   1.938       .  S
O1038      C1048   1.289       .  A
O1039     Ni1045   1.849       .  S
O1039      C1049   1.270       .  A
O1040     Ni1045   1.875       .  S
O1040      C1050   1.261       .  A
O1041     Ni1046   1.999       .  S
O1041      C1050   1.308       .  A
O1042     Ni1046   1.990       .  S
O1042      C1049   1.292       .  A
O1043     Ni1046   1.905       .  S
O1043      C1048   1.273       .  A
O1044     Ni1046   1.852       .  S
O1044      C1047   1.262       .  A
Ni1045    Ni1046   2.383       .  S
C1049      C1063   1.492   1_554  S
C1050      C1134   1.490       .  S
O1051     Ni1059   1.928       .  S
O1051      C1061   1.288       .  A
O1052     Ni1059   1.937       .  S
O1052      C1062   1.289       .  A
O1053     Ni1059   1.849       .  S
O1053      C1063   1.271       .  A
O1054     Ni1059   1.875       .  S
O1054      C1064   1.261       .  A
O1055     Ni1060   1.999       .  S
O1055      C1064   1.307       .  A
O1056     Ni1060   1.990       .  S
O1056      C1063   1.292       .  A
O1057     Ni1060   1.906       .  S
O1057      C1062   1.273       .  A
O1058     Ni1060   1.853       .  S
O1058      C1061   1.262       .  A
Ni1059    Ni1060   2.383       .  S
C1064      C1106   1.490       .  S
O1065     Ni1073   1.928       .  S
O1065      C1075   1.288       .  A
O1066     Ni1073   1.937       .  S
O1066      C1076   1.289       .  A
O1067     Ni1073   1.848       .  S
O1067      C1077   1.270       .  A
O1068     Ni1073   1.874       .  S
O1068      C1078   1.261       .  A
O1069     Ni1074   1.999       .  S
O1069      C1078   1.308       .  A
O1070     Ni1074   1.990       .  S
O1070      C1077   1.292       .  A
O1071     Ni1074   1.905       .  S
O1071      C1076   1.273       .  A
O1072     Ni1074   1.852       .  S
O1072      C1075   1.262       .  A
Ni1073    Ni1074   2.383       .  S
C1075      C1103   1.426       .  S
C1076      C1440   1.472   1_545  S
C1077      C1091   1.492       .  S
O1079     Ni1087   1.928       .  S
O1079      C1089   1.288       .  A
O1080     Ni1087   1.937       .  S
O1080      C1090   1.289       .  A
O1081     Ni1087   1.848       .  S
O1081      C1091   1.271       .  A
O1082     Ni1087   1.875       .  S
O1082      C1092   1.261       .  A
O1083     Ni1088   1.999       .  S
O1083      C1092   1.307       .  A
O1084     Ni1088   1.990       .  S
O1084      C1091   1.292       .  A
O1085     Ni1088   1.905       .  S
O1085      C1090   1.273       .  A
O1086     Ni1088   1.853       .  S
O1086      C1089   1.262       .  A
Ni1087    Ni1088   2.383       .  S
C1089      C1453   1.426   1_545  S
C1090      C1118   1.472       .  S
C1092      C1176   1.489       .  S
O1093     Ni1101   1.928       .  S
O1093      C1103   1.288       .  A
O1094     Ni1101   1.937       .  S
O1094      C1104   1.289       .  A
O1095     Ni1101   1.849       .  S
O1095      C1105   1.271       .  A
O1096     Ni1101   1.875       .  S
O1096      C1106   1.261       .  A
O1097     Ni1102   1.999       .  S
O1097      C1106   1.308       .  A
O1098     Ni1102   1.990       .  S
O1098      C1105   1.292       .  A
O1099     Ni1102   1.905       .  S
O1099      C1104   1.273       .  A
O1100     Ni1102   1.852       .  S
O1100      C1103   1.262       .  A
Ni1101    Ni1102   2.383       .  S
C1104      C1244   1.472       .  S
C1105      C1119   1.492       .  S
O1107     Ni1115   1.928       .  S
O1107      C1117   1.288       .  A
O1108     Ni1115   1.937       .  S
O1108      C1118   1.289       .  A
O1109     Ni1115   1.849       .  S
O1109      C1119   1.271       .  A
O1110     Ni1115   1.875       .  S
O1110      C1120   1.261       .  A
O1111     Ni1116   1.999       .  S
O1111      C1120   1.308       .  A
O1112     Ni1116   1.990       .  S
O1112      C1119   1.292       .  A
O1113     Ni1116   1.905       .  S
O1113      C1118   1.273       .  A
O1114     Ni1116   1.852       .  S
O1114      C1117   1.262       .  A
Ni1115    Ni1116   2.383       .  S
C1117      C1257   1.426       .  S
C1120      C1148   1.490       .  S
O1121     Ni1129   1.928       .  S
O1121      C1131   1.288       .  A
O1122     Ni1129   1.937       .  S
O1122      C1132   1.289       .  A
O1123     Ni1129   1.848       .  S
O1123      C1133   1.270       .  A
O1124     Ni1129   1.874       .  S
O1124      C1134   1.261       .  A
O1125     Ni1130   2.000       .  S
O1125      C1134   1.308       .  A
O1126     Ni1130   1.990       .  S
O1126      C1133   1.292       .  A
O1127     Ni1130   1.905       .  S
O1127      C1132   1.273       .  A
O1128     Ni1130   1.852       .  S
O1128      C1131   1.262       .  A
Ni1129    Ni1130   2.383       .  S
C1132      C1328   1.472       .  S
C1133      C1147   1.492       .  S
O1135     Ni1143   1.928       .  S
O1135      C1145   1.288       .  A
O1136     Ni1143   1.937       .  S
O1136      C1146   1.289       .  A
O1137     Ni1143   1.848       .  S
O1137      C1147   1.270       .  A
O1138     Ni1143   1.875       .  S
O1138      C1148   1.261       .  A
O1139     Ni1144   2.000       .  S
O1139      C1148   1.308       .  A
O1140     Ni1144   1.990       .  S
O1140      C1147   1.292       .  A
O1141     Ni1144   1.905       .  S
O1141      C1146   1.273       .  A
O1142     Ni1144   1.852       .  S
O1142      C1145   1.262       .  A
Ni1143    Ni1144   2.383       .  S
C1145      C1341   1.426       .  S
O1149     Ni1157   1.928       .  S
O1149      C1159   1.288       .  A
O1150     Ni1157   1.937       .  S
O1150      C1160   1.289       .  A
O1151     Ni1157   1.849       .  S
O1151      C1161   1.271       .  A
O1152     Ni1157   1.875       .  S
O1152      C1162   1.261       .  A
O1153     Ni1158   1.999       .  S
O1153      C1162   1.307       .  A
O1154     Ni1158   1.990       .  S
O1154      C1161   1.292       .  A
O1155     Ni1158   1.905       .  S
O1155      C1160   1.273       .  A
O1156     Ni1158   1.852       .  S
O1156      C1159   1.262       .  A
Ni1157    Ni1158   2.383       .  S
C1160      C1468   1.472   1_545  S
C1161      C1175   1.492       .  S
O1163     Ni1171   1.928       .  S
O1163      C1173   1.288       .  A
O1164     Ni1171   1.937       .  S
O1164      C1174   1.289       .  A
O1165     Ni1171   1.849       .  S
O1165      C1175   1.271       .  A
O1166     Ni1171   1.875       .  S
O1166      C1176   1.261       .  A
O1167     Ni1172   1.999       .  S
O1167      C1176   1.307       .  A
O1168     Ni1172   1.990       .  S
O1168      C1175   1.292       .  A
O1169     Ni1172   1.905       .  S
O1169      C1174   1.273       .  A
O1170     Ni1172   1.852       .  S
O1170      C1173   1.262       .  A
Ni1171    Ni1172   2.383       .  S
C1173      C1481   1.426   1_545  S
O1177     Ni1185   1.928       .  S
O1177      C1187   1.288       .  A
O1178     Ni1185   1.937       .  S
O1178      C1188   1.289       .  A
O1179     Ni1185   1.848       .  S
O1179      C1189   1.271       .  A
O1180     Ni1185   1.875       .  S
O1180      C1190   1.261       .  A
O1181     Ni1186   1.999       .  S
O1181      C1190   1.307       .  A
O1182     Ni1186   1.990       .  S
O1182      C1189   1.292       .  A
O1183     Ni1186   1.905       .  S
O1183      C1188   1.273       .  A
O1184     Ni1186   1.853       .  S
O1184      C1187   1.262       .  A
Ni1185    Ni1186   2.383       .  S
C1188      C1216   1.472       .  S
C1189      C1203   1.492   1_554  S
C1190      C1330   1.489       .  S
O1191     Ni1199   1.928       .  S
O1191      C1201   1.288       .  A
O1192     Ni1199   1.938       .  S
O1192      C1202   1.289       .  A
O1193     Ni1199   1.848       .  S
O1193      C1203   1.270       .  A
O1194     Ni1199   1.874       .  S
O1194      C1204   1.261       .  A
O1195     Ni1200   1.999       .  S
O1195      C1204   1.308       .  A
O1196     Ni1200   1.990       .  S
O1196      C1203   1.292       .  A
O1197     Ni1200   1.905       .  S
O1197      C1202   1.273       .  A
O1198     Ni1200   1.852       .  S
O1198      C1201   1.262       .  A
Ni1199    Ni1200   2.383       .  S
C1201      C1229   1.426       .  S
C1204      C1246   1.489       .  S
O1205     Ni1213   1.928       .  S
O1205      C1215   1.288       .  A
O1206     Ni1213   1.938       .  S
O1206      C1216   1.289       .  A
O1207     Ni1213   1.849       .  S
O1207      C1217   1.270       .  A
O1208     Ni1213   1.874       .  S
O1208      C1218   1.261       .  A
O1209     Ni1214   1.999       .  S
O1209      C1218   1.308       .  A
O1210     Ni1214   1.990       .  S
O1210      C1217   1.292       .  A
O1211     Ni1214   1.905       .  S
O1211      C1216   1.273       .  A
O1212     Ni1214   1.852       .  S
O1212      C1215   1.262       .  A
Ni1213    Ni1214   2.383       .  S
C1217      C1231   1.492   1_554  S
C1218      C1302   1.490       .  S
O1219     Ni1227   1.928       .  S
O1219      C1229   1.288       .  A
O1220     Ni1227   1.937       .  S
O1220      C1230   1.289       .  A
O1221     Ni1227   1.849       .  S
O1221      C1231   1.271       .  A
O1222     Ni1227   1.875       .  S
O1222      C1232   1.261       .  A
O1223     Ni1228   1.999       .  S
O1223      C1232   1.307       .  A
O1224     Ni1228   1.990       .  S
O1224      C1231   1.292       .  A
O1225     Ni1228   1.906       .  S
O1225      C1230   1.273       .  A
O1226     Ni1228   1.853       .  S
O1226      C1229   1.262       .  A
Ni1227    Ni1228   2.383       .  S
C1232      C1274   1.490       .  S
O1233     Ni1241   1.928       .  S
O1233      C1243   1.288       .  A
O1234     Ni1241   1.937       .  S
O1234      C1244   1.289       .  A
O1235     Ni1241   1.848       .  S
O1235      C1245   1.270       .  A
O1236     Ni1241   1.874       .  S
O1236      C1246   1.261       .  A
O1237     Ni1242   1.999       .  S
O1237      C1246   1.307       .  A
O1238     Ni1242   1.990       .  S
O1238      C1245   1.292       .  A
O1239     Ni1242   1.905       .  S
O1239      C1244   1.273       .  A
O1240     Ni1242   1.852       .  S
O1240      C1243   1.262       .  A
Ni1241    Ni1242   2.383       .  S
C1243      C1271   1.426       .  S
C1245      C1259   1.492       .  S
O1247     Ni1255   1.928       .  S
O1247      C1257   1.288       .  A
O1248     Ni1255   1.937       .  S
O1248      C1258   1.289       .  A
O1249     Ni1255   1.848       .  S
O1249      C1259   1.271       .  A
O1250     Ni1255   1.874       .  S
O1250      C1260   1.261       .  A
O1251     Ni1256   1.999       .  S
O1251      C1260   1.307       .  A
O1252     Ni1256   1.990       .  S
O1252      C1259   1.292       .  A
O1253     Ni1256   1.905       .  S
O1253      C1258   1.273       .  A
O1254     Ni1256   1.853       .  S
O1254      C1257   1.262       .  A
Ni1255    Ni1256   2.383       .  S
C1258      C1286   1.472       .  S
C1260      C1344   1.489       .  S
O1261     Ni1269   1.928       .  S
O1261      C1271   1.288       .  A
O1262     Ni1269   1.937       .  S
O1262      C1272   1.289       .  A
O1263     Ni1269   1.849       .  S
O1263      C1273   1.271       .  A
O1264     Ni1269   1.875       .  S
O1264      C1274   1.261       .  A
O1265     Ni1270   1.999       .  S
O1265      C1274   1.308       .  A
O1266     Ni1270   1.990       .  S
O1266      C1273   1.292       .  A
O1267     Ni1270   1.905       .  S
O1267      C1272   1.273       .  A
O1268     Ni1270   1.852       .  S
O1268      C1271   1.262       .  A
Ni1269    Ni1270   2.383       .  S
C1272      C1412   1.472       .  S
C1273      C1287   1.492       .  S
O1275     Ni1283   1.928       .  S
O1275      C1285   1.288       .  A
O1276     Ni1283   1.937       .  S
O1276      C1286   1.289       .  A
O1277     Ni1283   1.849       .  S
O1277      C1287   1.271       .  A
O1278     Ni1283   1.875       .  S
O1278      C1288   1.261       .  A
O1279     Ni1284   1.999       .  S
O1279      C1288   1.308       .  A
O1280     Ni1284   1.990       .  S
O1280      C1287   1.292       .  A
O1281     Ni1284   1.905       .  S
O1281      C1286   1.273       .  A
O1282     Ni1284   1.852       .  S
O1282      C1285   1.262       .  A
Ni1283    Ni1284   2.383       .  S
C1285      C1425   1.426       .  S
C1288      C1316   1.490       .  S
O1289     Ni1297   1.928       .  S
O1289      C1299   1.288       .  A
O1290     Ni1297   1.937       .  S
O1290      C1300   1.289       .  A
O1291     Ni1297   1.848       .  S
O1291      C1301   1.270       .  A
O1292     Ni1297   1.874       .  S
O1292      C1302   1.261       .  A
O1293     Ni1298   2.000       .  S
O1293      C1302   1.308       .  A
O1294     Ni1298   1.990       .  S
O1294      C1301   1.292       .  A
O1295     Ni1298   1.905       .  S
O1295      C1300   1.273       .  A
O1296     Ni1298   1.852       .  S
O1296      C1299   1.262       .  A
Ni1297    Ni1298   2.383       .  S
C1300      C1496   1.472       .  S
C1301      C1315   1.492       .  S
O1303     Ni1311   1.928       .  S
O1303      C1313   1.288       .  A
O1304     Ni1311   1.937       .  S
O1304      C1314   1.289       .  A
O1305     Ni1311   1.848       .  S
O1305      C1315   1.270       .  A
O1306     Ni1311   1.875       .  S
O1306      C1316   1.261       .  A
O1307     Ni1312   2.000       .  S
O1307      C1316   1.308       .  A
O1308     Ni1312   1.990       .  S
O1308      C1315   1.292       .  A
O1309     Ni1312   1.905       .  S
O1309      C1314   1.273       .  A
O1310     Ni1312   1.853       .  S
O1310      C1313   1.262       .  A
Ni1311    Ni1312   2.383       .  S
C1313      C1509   1.426       .  S
O1317     Ni1325   1.928       .  S
O1317      C1327   1.288       .  A
O1318     Ni1325   1.937       .  S
O1318      C1328   1.289       .  A
O1319     Ni1325   1.849       .  S
O1319      C1329   1.271       .  A
O1320     Ni1325   1.875       .  S
O1320      C1330   1.261       .  A
O1321     Ni1326   1.999       .  S
O1321      C1330   1.307       .  A
O1322     Ni1326   1.990       .  S
O1322      C1329   1.292       .  A
O1323     Ni1326   1.905       .  S
O1323      C1328   1.273       .  A
O1324     Ni1326   1.852       .  S
O1324      C1327   1.262       .  A
Ni1325    Ni1326   2.383       .  S
C1329      C1343   1.492       .  S
O1331     Ni1339   1.928       .  S
O1331      C1341   1.288       .  A
O1332     Ni1339   1.937       .  S
O1332      C1342   1.289       .  A
O1333     Ni1339   1.849       .  S
O1333      C1343   1.271       .  A
O1334     Ni1339   1.875       .  S
O1334      C1344   1.261       .  A
O1335     Ni1340   1.999       .  S
O1335      C1344   1.307       .  A
O1336     Ni1340   1.990       .  S
O1336      C1343   1.292       .  A
O1337     Ni1340   1.905       .  S
O1337      C1342   1.273       .  A
O1338     Ni1340   1.852       .  S
O1338      C1341   1.262       .  A
Ni1339    Ni1340   2.383       .  S
O1345     Ni1353   1.928       .  S
O1345      C1355   1.288       .  A
O1346     Ni1353   1.937       .  S
O1346      C1356   1.289       .  A
O1347     Ni1353   1.848       .  S
O1347      C1357   1.271       .  A
O1348     Ni1353   1.875       .  S
O1348      C1358   1.261       .  A
O1349     Ni1354   1.999       .  S
O1349      C1358   1.307       .  A
O1350     Ni1354   1.990       .  S
O1350      C1357   1.292       .  A
O1351     Ni1354   1.905       .  S
O1351      C1356   1.273       .  A
O1352     Ni1354   1.853       .  S
O1352      C1355   1.262       .  A
Ni1353    Ni1354   2.383       .  S
C1356      C1384   1.472       .  S
C1357      C1371   1.492   1_554  S
C1358      C1498   1.489       .  S
O1359     Ni1367   1.928       .  S
O1359      C1369   1.288       .  A
O1360     Ni1367   1.938       .  S
O1360      C1370   1.289       .  A
O1361     Ni1367   1.848       .  S
O1361      C1371   1.270       .  A
O1362     Ni1367   1.874       .  S
O1362      C1372   1.261       .  A
O1363     Ni1368   1.999       .  S
O1363      C1372   1.308       .  A
O1364     Ni1368   1.990       .  S
O1364      C1371   1.292       .  A
O1365     Ni1368   1.905       .  S
O1365      C1370   1.273       .  A
O1366     Ni1368   1.852       .  S
O1366      C1369   1.262       .  A
Ni1367    Ni1368   2.383       .  S
C1369      C1397   1.426       .  S
C1372      C1414   1.489       .  S
O1373     Ni1381   1.928       .  S
O1373      C1383   1.288       .  A
O1374     Ni1381   1.938       .  S
O1374      C1384   1.289       .  A
O1375     Ni1381   1.849       .  S
O1375      C1385   1.270       .  A
O1376     Ni1381   1.874       .  S
O1376      C1386   1.261       .  A
O1377     Ni1382   1.999       .  S
O1377      C1386   1.308       .  A
O1378     Ni1382   1.990       .  S
O1378      C1385   1.292       .  A
O1379     Ni1382   1.905       .  S
O1379      C1384   1.273       .  A
O1380     Ni1382   1.852       .  S
O1380      C1383   1.262       .  A
Ni1381    Ni1382   2.383       .  S
C1385      C1399   1.492   1_554  S
C1386      C1470   1.489       .  S
O1387     Ni1395   1.928       .  S
O1387      C1397   1.288       .  A
O1388     Ni1395   1.937       .  S
O1388      C1398   1.289       .  A
O1389     Ni1395   1.849       .  S
O1389      C1399   1.271       .  A
O1390     Ni1395   1.875       .  S
O1390      C1400   1.261       .  A
O1391     Ni1396   1.999       .  S
O1391      C1400   1.308       .  A
O1392     Ni1396   1.990       .  S
O1392      C1399   1.292       .  A
O1393     Ni1396   1.906       .  S
O1393      C1398   1.273       .  A
O1394     Ni1396   1.853       .  S
O1394      C1397   1.262       .  A
Ni1395    Ni1396   2.383       .  S
C1400      C1442   1.490       .  S
O1401     Ni1409   1.928       .  S
O1401      C1411   1.288       .  A
O1402     Ni1409   1.937       .  S
O1402      C1412   1.289       .  A
O1403     Ni1409   1.848       .  S
O1403      C1413   1.270       .  A
O1404     Ni1409   1.874       .  S
O1404      C1414   1.261       .  A
O1405     Ni1410   1.999       .  S
O1405      C1414   1.308       .  A
O1406     Ni1410   1.990       .  S
O1406      C1413   1.292       .  A
O1407     Ni1410   1.905       .  S
O1407      C1412   1.273       .  A
O1408     Ni1410   1.852       .  S
O1408      C1411   1.262       .  A
Ni1409    Ni1410   2.383       .  S
C1411      C1439   1.426       .  S
C1413      C1427   1.492       .  S
O1415     Ni1423   1.928       .  S
O1415      C1425   1.288       .  A
O1416     Ni1423   1.937       .  S
O1416      C1426   1.289       .  A
O1417     Ni1423   1.848       .  S
O1417      C1427   1.271       .  A
O1418     Ni1423   1.874       .  S
O1418      C1428   1.261       .  A
O1419     Ni1424   1.999       .  S
O1419      C1428   1.307       .  A
O1420     Ni1424   1.990       .  S
O1420      C1427   1.292       .  A
O1421     Ni1424   1.905       .  S
O1421      C1426   1.273       .  A
O1422     Ni1424   1.853       .  S
O1422      C1425   1.262       .  A
Ni1423    Ni1424   2.383       .  S
C1426      C1454   1.472       .  S
C1428      C1512   1.489       .  S
O1429     Ni1437   1.928       .  S
O1429      C1439   1.288       .  A
O1430     Ni1437   1.937       .  S
O1430      C1440   1.289       .  A
O1431     Ni1437   1.849       .  S
O1431      C1441   1.271       .  A
O1432     Ni1437   1.875       .  S
O1432      C1442   1.261       .  A
O1433     Ni1438   1.999       .  S
O1433      C1442   1.308       .  A
O1434     Ni1438   1.990       .  S
O1434      C1441   1.292       .  A
O1435     Ni1438   1.905       .  S
O1435      C1440   1.273       .  A
O1436     Ni1438   1.852       .  S
O1436      C1439   1.262       .  A
Ni1437    Ni1438   2.383       .  S
C1441      C1455   1.492       .  S
O1443     Ni1451   1.928       .  S
O1443      C1453   1.288       .  A
O1444     Ni1451   1.937       .  S
O1444      C1454   1.289       .  A
O1445     Ni1451   1.849       .  S
O1445      C1455   1.271       .  A
O1446     Ni1451   1.875       .  S
O1446      C1456   1.261       .  A
O1447     Ni1452   1.999       .  S
O1447      C1456   1.308       .  A
O1448     Ni1452   1.990       .  S
O1448      C1455   1.292       .  A
O1449     Ni1452   1.905       .  S
O1449      C1454   1.273       .  A
O1450     Ni1452   1.852       .  S
O1450      C1453   1.262       .  A
Ni1451    Ni1452   2.383       .  S
C1456      C1484   1.490       .  S
O1457     Ni1465   1.928       .  S
O1457      C1467   1.288       .  A
O1458     Ni1465   1.937       .  S
O1458      C1468   1.289       .  A
O1459     Ni1465   1.848       .  S
O1459      C1469   1.270       .  A
O1460     Ni1465   1.874       .  S
O1460      C1470   1.261       .  A
O1461     Ni1466   2.000       .  S
O1461      C1470   1.308       .  A
O1462     Ni1466   1.990       .  S
O1462      C1469   1.292       .  A
O1463     Ni1466   1.905       .  S
O1463      C1468   1.273       .  A
O1464     Ni1466   1.852       .  S
O1464      C1467   1.262       .  A
Ni1465    Ni1466   2.383       .  S
C1469      C1483   1.492       .  S
O1471     Ni1479   1.928       .  S
O1471      C1481   1.288       .  A
O1472     Ni1479   1.937       .  S
O1472      C1482   1.289       .  A
O1473     Ni1479   1.848       .  S
O1473      C1483   1.270       .  A
O1474     Ni1479   1.875       .  S
O1474      C1484   1.261       .  A
O1475     Ni1480   2.000       .  S
O1475      C1484   1.308       .  A
O1476     Ni1480   1.990       .  S
O1476      C1483   1.292       .  A
O1477     Ni1480   1.905       .  S
O1477      C1482   1.273       .  A
O1478     Ni1480   1.853       .  S
O1478      C1481   1.262       .  A
Ni1479    Ni1480   2.383       .  S
O1485     Ni1493   1.928       .  S
O1485      C1495   1.288       .  A
O1486     Ni1493   1.937       .  S
O1486      C1496   1.289       .  A
O1487     Ni1493   1.849       .  S
O1487      C1497   1.271       .  A
O1488     Ni1493   1.875       .  S
O1488      C1498   1.261       .  A
O1489     Ni1494   1.999       .  S
O1489      C1498   1.307       .  A
O1490     Ni1494   1.990       .  S
O1490      C1497   1.292       .  A
O1491     Ni1494   1.905       .  S
O1491      C1496   1.273       .  A
O1492     Ni1494   1.852       .  S
O1492      C1495   1.262       .  A
Ni1493    Ni1494   2.383       .  S
C1497      C1511   1.492       .  S
O1499     Ni1507   1.928       .  S
O1499      C1509   1.288       .  A
O1500     Ni1507   1.937       .  S
O1500      C1510   1.289       .  A
O1501     Ni1507   1.849       .  S
O1501      C1511   1.271       .  A
O1502     Ni1507   1.875       .  S
O1502      C1512   1.261       .  A
O1503     Ni1508   1.999       .  S
O1503      C1512   1.307       .  A
O1504     Ni1508   1.990       .  S
O1504      C1511   1.292       .  A
O1505     Ni1508   1.905       .  S
O1505      C1510   1.273       .  A
O1506     Ni1508   1.852       .  S
O1506      C1509   1.262       .  A
Ni1507    Ni1508   2.383       .  S
