geometry optimzed in LAMMPS
_audit_creation_date              2020-12-01 
_audit_creation_method            'lammps2cif' 
_symmetry_space_group_name_H-M    'P1' 
_symmetry_Int_Tables_number       1 
_symmetry_cell_setting            triclinic 
loop_ 
_symmetry_equiv_pos_as_xyz 
  x,y,z 
_cell_length_a                    46.25008124 
_cell_length_b                    46.56234232274766 
_cell_length_c                    48.94840172277117 
_cell_angle_alpha                 89.86790044870732 
_cell_angle_beta                  90.32867460957699 
_cell_angle_gamma                 119.74497498087078 
loop_ 
_atom_site_label 
_atom_site_type_symbol 
_atom_site_fract_x 
_atom_site_fract_y 
_atom_site_fract_z 
_atom_site_charge 
In1        In  0.39754612  0.10602506  0.93724287     1.36900
C2          C  0.34419712  0.10231047  0.96025739     0.77100
O3          O  0.38324029  0.05235704  0.94073720    -0.61400
O4          O  0.41516824  0.08491830  0.97114358    -0.52300
C5          C  0.39769330  0.09614958  0.88375840     0.69700
O6          O  0.37148000  0.08324976  0.89778329    -0.47100
C7          C  0.43986574  0.17115168  0.94327153     0.74400
O8          O  0.34864124  0.10500416  0.93478156    -0.59000
O9          O  0.44930950  0.14987735  0.94504606    -0.49100
O10         O  0.36686879  0.10105806  0.97365673    -0.55400
C11         C  0.39740487  0.05529739  0.96341887     0.84600
O12         O  0.42413842  0.11335587  0.89725681    -0.57300
O13         O  0.40923427  0.15874668  0.93850964    -0.60600
In14       In  0.37724651  0.08402627  0.71290781     1.36900
C15         C  0.38228875  0.13582727  0.68592703     0.77100
O16         O  0.43054389  0.09587239  0.70853550    -0.61400
O17         O  0.39657100  0.06726181  0.67749053    -0.52300
C18         C  0.38918389  0.08851802  0.76617793     0.69700
O19         O  0.38862675  0.11120401  0.75246842    -0.47100
C20         C  0.31192771  0.03971121  0.71522797     0.74400
O21         O  0.39339180  0.13771071  0.70981307    -0.59000
O22         O  0.33382035  0.03155930  0.71086210    -0.49100
O23         O  0.36838708  0.10706979  0.67592300    -0.55400
C24         C  0.42657268  0.08307560  0.68520701     0.84600
O25         O  0.38427611  0.06352935  0.75240578    -0.57300
O26         O  0.32367484  0.07041690  0.71778764    -0.60600
In27       In  0.10420116  0.40130581  0.71684832     1.36900
C28         C  0.10238954  0.35292893  0.68687016     0.77100
O29         O  0.04918509  0.38107226  0.71393246    -0.61400
O30         O  0.07918735  0.41890925  0.68617046    -0.52300
C31         C  0.09421903  0.39504851  0.77047254     0.69700
O32         O  0.09740103  0.37441632  0.75607105    -0.47100
C33         C  0.16879042  0.44799933  0.71716402     0.74400
O34         O  0.09371179  0.34940174  0.71159979    -0.59000
O35         O  0.14580125  0.45502451  0.71422834    -0.49100
O36         O  0.11226140  0.38158133  0.67761326    -0.55400
C37         C  0.05004530  0.39789635  0.69348374     0.84600
O38         O  0.09589994  0.41915505  0.75719513    -0.57300
O39         O  0.15829692  0.41749213  0.71955743    -0.60600
In40       In  0.07476263  0.37897829  0.94151172     1.36900
C41         C  0.12865403  0.38693640  0.96728822     0.77100
O42         O  0.08931857  0.43256425  0.94154805    -0.61400
O43         O  0.05994379  0.40370781  0.97442858    -0.52300
C44         C  0.07711127  0.38482890  0.88762740     0.69700
O45         O  0.09897174  0.38288419  0.90170216    -0.47100
C46         C  0.03142570  0.31369018  0.94523241     0.74400
O47         O  0.12842295  0.39270838  0.94211579    -0.59000
O48         O  0.02192235  0.33495801  0.94523532    -0.49100
O49         O  0.10128171  0.37740636  0.97921831    -0.55400
C50         C  0.07675342  0.43232140  0.96435225     0.84600
O51         O  0.05362770  0.38418406  0.90123674    -0.57300
O52         O  0.06243994  0.32628501  0.94401039    -0.60600
In53       In  0.40187901  0.29661863  0.38609819     1.36900
C54         C  0.35024544  0.24938665  0.35968909     0.77100
O55         O  0.38644463  0.33499958  0.38190953    -0.61400
O56         O  0.42081481  0.33597763  0.35314922    -0.52300
C57         C  0.40000133  0.30836888  0.43857896     0.69700
O58         O  0.37451095  0.28908630  0.42491445    -0.47100
C59         C  0.44452872  0.27344095  0.38462150     0.74400
O60         O  0.35060523  0.25240083  0.38531313    -0.59000
O61         O  0.45331516  0.30341480  0.37993961    -0.49100
O62         O  0.37645655  0.27037552  0.34794560    -0.55400
C63         C  0.40241777  0.34751393  0.36031040     0.84600
O64         O  0.42688573  0.32193838  0.42526057    -0.57300
O65         O  0.41423128  0.25596050  0.39050733    -0.60600
In66       In  0.37439529  0.29283034  0.60738910     1.36900
C67         C  0.37819598  0.24287624  0.62964667     0.77100
O68         O  0.42843756  0.33149436  0.61026288    -0.61400
O69         O  0.39729915  0.32864663  0.64277043    -0.52300
C70         C  0.38688259  0.30597322  0.55484675     0.69700
O71         O  0.39427441  0.28709281  0.56785440    -0.47100
C72         C  0.30899366  0.27208560  0.60953330     0.74400
O73         O  0.37730062  0.24632386  0.60414984    -0.59000
O74         O  0.33082165  0.30200760  0.61352344    -0.49100
O75         O  0.37673054  0.26487035  0.64357372    -0.55400
C76         C  0.42668668  0.34109916  0.63388570     0.84600
O77         O  0.37303862  0.31849561  0.56884638    -0.57300
O78         O  0.32097639  0.25345037  0.60527933    -0.60600
In79       In  0.19032197  0.10865264  0.04550367     1.36900
C80         C  0.23649935  0.10277685  0.01839841     0.77100
O81         O  0.15047490  0.05497614  0.04449178    -0.61400
O82         O  0.15172469  0.08529612  0.01188836    -0.52300
C83         C  0.18676208  0.09836120  0.09888732     0.69700
O84         O  0.20909751  0.09872141  0.08400613    -0.47100
C85         C  0.21002738  0.17367208  0.04402891     0.74400
O86         O  0.23222686  0.09790805  0.04373605    -0.59000
O87         O  0.17972583  0.15150239  0.04250821    -0.49100
O88         O  0.21706890  0.11089192  0.00701662    -0.55400
C89         C  0.13935255  0.05633436  0.02129328     0.84600
O90         O  0.16558143  0.10308779  0.08619880    -0.57300
O91         O  0.22952633  0.16224387  0.04598745    -0.60600
In92       In  0.20153372  0.09184192  0.26946162     1.36900
C93         C  0.24559798  0.14088399  0.29985380     0.77100
O94         O  0.17053912  0.11637998  0.27122246    -0.61400
O95         O  0.15603123  0.07406392  0.29611154    -0.52300
C96         C  0.19485613  0.09022952  0.21586968     0.69700
O97         O  0.22024665  0.11212993  0.22820256    -0.47100
C98         C  0.22318591  0.04832392  0.27328424     0.74400
O99         O  0.24166077  0.14386897  0.27464387    -0.59000
O100        O  0.19340575  0.04066397  0.27847714    -0.49100
O101        O  0.22704379  0.11232028  0.30931355    -0.55400
C102        C  0.15141997  0.09786312  0.28965333     0.84600
O103        O  0.17220538  0.06931195  0.23111240    -0.57300
O104        O  0.24137413  0.07815326  0.26661481    -0.60600
In105      In  0.08280451  0.20364892  0.37644783     1.36900
C106        C  0.13499089  0.25389905  0.35285456     0.77100
O107        O  0.09877626  0.16568767  0.37213161    -0.61400
O108        O  0.06895811  0.16828516  0.34045046    -0.52300
C109        C  0.08161619  0.19023752  0.42925644     0.69700
O110        O  0.10790733  0.21009889  0.41682071    -0.47100
C111        C  0.03857634  0.22488027  0.37698574     0.74400
O112        O  0.13435180  0.24751957  0.37797746    -0.59000
O113        O  0.03020730  0.19522028  0.37126110    -0.49100
O114        O  0.10868264  0.23454807  0.34005513    -0.55400
C115        C  0.08655273  0.15613815  0.34865958     0.84600
O116        O  0.05593310  0.17614544  0.41429452    -0.57300
O117        O  0.06914500  0.24291908  0.38187784    -0.60600
In118      In  0.09962858  0.19515941  0.59999487     1.36900
C119        C  0.09719041  0.24348839  0.62678905     0.77100
O120        O  0.04544991  0.15697936  0.60106432    -0.61400
O121        O  0.07587798  0.15476243  0.63225702    -0.52300
C122        C  0.09019930  0.18604742  0.54648976     0.69700
O123        O  0.08121766  0.20332398  0.55997702    -0.47100
C124        C  0.16505138  0.21648089  0.60372959     0.74400
O125        O  0.09601316  0.24160356  0.60104415    -0.59000
O126        O  0.14322398  0.18661675  0.60788845    -0.49100
O127        O  0.09939777  0.22055134  0.63851555    -0.55400
C128        C  0.04666034  0.14355773  0.62307200     0.84600
O129        O  0.10306733  0.17245390  0.56056678    -0.57300
O130        O  0.15304507  0.23471045  0.59756512    -0.60600
In131      In  0.29543675  0.41271332  0.27150978     1.36900
C132        C  0.24508265  0.36171106  0.29621755     0.77100
O133        O  0.33382503  0.39695434  0.27488262    -0.61400
O134        O  0.33312530  0.42779969  0.30605036    -0.52300
C135        C  0.30558881  0.40958159  0.21851417     0.69700
O136        O  0.28740654  0.38451042  0.23280948    -0.47100
C137        C  0.27627362  0.45821577  0.27309853     0.74400
O138        O  0.24877878  0.36364276  0.27067776    -0.59000
O139        O  0.30631756  0.46563441  0.27659952    -0.49100
O140        O  0.26738822  0.38621184  0.30907997    -0.55400
C141        C  0.34506663  0.41023324  0.29774306     0.84600
O142        O  0.31906275  0.43664072  0.23147605    -0.57300
O143        O  0.25672448  0.42791331  0.26892783    -0.60600
In144      In  0.28654486  0.38205377  0.04915097     1.36900
C145        C  0.23864823  0.38569477  0.02220566     0.77100
O146        O  0.32112196  0.43650854  0.04591198    -0.61400
O147        O  0.32867550  0.40595835  0.01838694    -0.52300
C148        C  0.30002365  0.39402356  0.10197272     0.69700
O149        O  0.28007433  0.40043008  0.08932701    -0.47100
C150        C  0.26402288  0.31677418  0.04587691     0.74400
O151        O  0.24002930  0.38553878  0.04798290    -0.59000
O152        O  0.29352897  0.33831853  0.03980868    -0.49100
O153        O  0.26173397  0.38365367  0.01051364    -0.55400
C154        C  0.33671844  0.43512282  0.02542956     0.84600
O155        O  0.31309705  0.38104628  0.08758588    -0.57300
O156        O  0.24635492  0.32892908  0.05343446    -0.60600
C157        C  0.31154119  0.43281779  0.17189233    -0.09700
C158        C  0.30929392  0.40739259  0.18876078     0.06500
C159        C  0.30822410  0.37937280  0.17664733    -0.03400
C160        C  0.30691922  0.37615653  0.14817427    -0.07900
C161        C  0.30655135  0.40044115  0.13144866     0.05600
C162        C  0.31018187  0.42954276  0.14344460    -0.02900
Br163      Br  0.31441822  0.46590042  0.12183924    -0.02600
H164        H  0.31314672  0.45483486  0.18085887     0.09600
H165        H  0.30494473  0.35402010  0.13911731     0.07600
Br166      Br  0.30934747  0.34517829  0.19783893    -0.03000
C167        C  0.21648304  0.33320959  0.33893285    -0.09700
C168        C  0.21707040  0.33343397  0.31021498     0.06500
C169        C  0.19071272  0.30698691  0.29589772    -0.03400
C170        C  0.16470160  0.28143342  0.31037168    -0.07900
C171        C  0.16390917  0.28140827  0.33905377     0.05600
C172        C  0.19031643  0.30772156  0.35339568    -0.02900
Br173      Br  0.19190078  0.31168431  0.39251083    -0.02600
H174        H  0.23635522  0.35323979  0.35034770     0.09600
H175        H  0.14477929  0.26142799  0.29897003     0.07600
Br176      Br  0.18755816  0.30394450  0.25671807    -0.03000
C177        C  0.05724850  0.17860514  0.50420530    -0.09700
C178        C  0.08666205  0.18300983  0.51650858     0.06500
C179        C  0.11321419  0.18722415  0.49984593    -0.03400
C180        C  0.11055090  0.18844743  0.47144545    -0.07900
C181        C  0.08145825  0.18483038  0.45905981     0.05600
C182        C  0.05422911  0.17899024  0.47572316    -0.02900
Br183      Br  0.01333583  0.17405189  0.46118344    -0.02600
H184        H  0.03669606  0.17538504  0.51685104     0.09600
H185        H  0.13168045  0.19297055  0.45897235     0.07600
Br186      Br  0.15485641  0.19461465  0.51475901    -0.03000
C187        C  0.27001373  0.03671233  0.26725698    -0.09700
C188        C  0.23644514  0.02493307  0.27434936     0.06500
C189        C  0.21677472  0.49127754  0.28161390    -0.03400
C190        C  0.23056985  0.47046057  0.28120893    -0.07900
C191        C  0.26396871  0.48221206  0.27402594     0.05600
C192        C  0.28384061  0.01585892  0.26708584    -0.02900
Br193      Br  0.32926306  0.03443687  0.25554594    -0.02600
H194        H  0.28569786  0.06235369  0.26142294     0.09600
H195        H  0.21490899  0.44467702  0.28670845     0.07600
Br196      Br  0.17099017  0.47162225  0.29236798    -0.03000
C197        C  0.11595365  0.12434281  0.28960587    -0.09700
C198        C  0.12770111  0.10570711  0.30363061     0.06500
C199        C  0.12118597  0.10007670  0.33185664    -0.03400
C200        C  0.10491761  0.11436860  0.34555924    -0.07900
C201        C  0.09512975  0.13479546  0.33193551     0.05600
C202        C  0.09994354  0.13892827  0.30338722    -0.02900
Br203      Br  0.08974233  0.16785481  0.28260064    -0.02600
H204        H  0.12105646  0.12930244  0.26798372     0.09600
H205        H  0.10188050  0.11124269  0.36752891     0.07600
Br206      Br  0.13820694  0.07750939  0.35383738    -0.03000
C207        C  0.21604797  0.25882421  0.04713581    -0.09700
C208        C  0.25062932  0.28024922  0.04450622     0.06500
C209        C  0.27119132  0.26604863  0.04108829    -0.03400
C210        C  0.25719692  0.23156778  0.04092156    -0.07900
C211        C  0.22267732  0.21011071  0.04365787     0.05600
C212        C  0.20197864  0.22425746  0.04651059    -0.02900
Br213      Br  0.15448179  0.19820989  0.05009042    -0.02600
H214        H  0.19963229  0.26900180  0.04964302     0.09600
H215        H  0.27370617  0.22146870  0.03857340     0.07600
Br216      Br  0.31866478  0.29182038  0.03702005    -0.03000
C217        C  0.21671160  0.09914464  0.14103556    -0.09700
C218        C  0.18689328  0.09387081  0.12880715     0.06500
C219        C  0.15885590  0.08493777  0.14550747    -0.03400
C220        C  0.16159793  0.08273362  0.17385708    -0.07900
C221        C  0.19193446  0.08963796  0.18595120     0.05600
C222        C  0.21944824  0.09715342  0.16924820    -0.02900
Br223      Br  0.26098760  0.10350791  0.18360805    -0.02600
H224        H  0.23837632  0.10539190  0.12863279     0.09600
H225        H  0.14017523  0.07646328  0.18657726     0.07600
Br226      Br  0.11608848  0.07477690  0.13120510    -0.03000
C227        C  0.25119975  0.22440745  0.61063369    -0.09700
C228        C  0.27229434  0.25892508  0.60935632     0.06500
C229        C  0.25760785  0.27909420  0.60651303    -0.03400
C230        C  0.22284730  0.26456570  0.60486388    -0.07900
C231        C  0.20175113  0.22999486  0.60598285     0.05600
C232        C  0.21648010  0.20987614  0.60896192    -0.02900
Br233      Br  0.19128038  0.16242961  0.60992615    -0.02600
H234        H  0.26180367  0.20832793  0.61270465     0.09600
H235        H  0.21227605  0.28063182  0.60250677     0.07600
Br236      Br  0.28313686  0.32639380  0.60347661    -0.03000
C237        C  0.00188704  0.28245599  0.37937829    -0.09700
C238        C  0.46787736  0.26010151  0.38309635     0.06500
C239        C  0.45738870  0.22589651  0.38494451    -0.03400
C240        C  0.48065181  0.21503922  0.38224943    -0.07900
C241        C  0.01467799  0.23751018  0.37855082     0.05600
C242        C  0.02520346  0.27170930  0.37749985    -0.02900
Br243      Br  0.07087796  0.30564605  0.37321207    -0.02600
H244        H  0.01061845  0.30871620  0.37812855     0.09600
H245        H  0.47211737  0.18882639  0.38366785     0.07600
Br246      Br  0.41205469  0.19229061  0.39144006    -0.03000
C247        C  0.38473983  0.38980231  0.35732868    -0.09700
C248        C  0.39697397  0.37133520  0.34400345     0.06500
C249        C  0.39757089  0.37146803  0.31517262    -0.03400
C250        C  0.38304291  0.38697060  0.30053322    -0.07900
C251        C  0.36786169  0.40273186  0.31389755     0.05600
C252        C  0.37037882  0.40551248  0.34268870    -0.02900
Br253      Br  0.35159956  0.42693208  0.36376073    -0.02600
H254        H  0.38443787  0.39031311  0.37948641     0.09600
H255        H  0.38176065  0.38480797  0.27843709     0.07600
Br256      Br  0.41399084  0.34773829  0.29433155    -0.03000
C257        C  0.29180199  0.19832073  0.30275682    -0.09700
C258        C  0.27050625  0.16878617  0.31638808     0.06500
C259        C  0.27401873  0.16700389  0.34497946    -0.03400
C260        C  0.29974386  0.19388267  0.35878094    -0.07900
C261        C  0.32190590  0.22280839  0.34475933     0.05600
C262        C  0.31704576  0.22521557  0.31657874    -0.02900
Br263      Br  0.34264605  0.26469331  0.29561783    -0.02600
H264        H  0.28899387  0.20063122  0.28098207     0.09600
H265        H  0.30275883  0.19189753  0.38055945     0.07600
Br266      Br  0.24474273  0.12937419  0.36675619    -0.03000
C267        C  0.36810013  0.31187840  0.50880443    -0.09700
C268        C  0.39285512  0.31170654  0.52535252     0.06500
C269        C  0.42158627  0.31429533  0.51312938    -0.03400
C270        C  0.42440188  0.31545554  0.48471673    -0.07900
C271        C  0.39852791  0.31308051  0.46811947     0.05600
C272        C  0.37050844  0.31214262  0.48033830    -0.02900
Br273      Br  0.33482839  0.31114412  0.45929210    -0.02600
H274        H  0.34603292  0.31016234  0.51800053     0.09600
H275        H  0.44616610  0.31646173  0.47555225     0.07600
Br276      Br  0.45766257  0.31610268  0.53410616    -0.03000
C277        C  0.10221762  0.49351041  0.96387411    -0.09700
C278        C  0.08448759  0.46375457  0.97850938     0.06500
C279        C  0.08000925  0.46567990  0.00688952    -0.03400
C280        C  0.09611076  0.99650524  0.02017545    -0.09100
C281        C  0.11631031  0.02592654  0.00577930     0.05600
C282        C  0.11811374  0.02424421  0.97707706    -0.02900
Br283      Br  0.14556214  0.06211136  0.95483032    -0.02600
H284        H  0.10574772  0.49284874  0.94205462     0.09600
H285        H  0.09410393  0.99728496  0.04218801     0.07600
Br286      Br  0.05443001  0.42741464  0.02923318    -0.03000
C287        C  0.18046081  0.38383601  0.96607504    -0.09700
C288        C  0.15816444  0.38954249  0.98122550     0.06500
C289        C  0.16381367  0.39607969  0.00941869    -0.03400
C290        C  0.19036554  0.39502001  0.02212731    -0.07900
C291        C  0.21198859  0.38797017  0.00723584     0.05600
C292        C  0.20724048  0.38306092  0.97866964    -0.02900
Br293      Br  0.23523267  0.37415770  0.95538958    -0.02600
H294        H  0.17651076  0.37900090  0.94430949     0.09600
H295        H  0.19410416  0.39983217  0.04389183     0.07600
Br296      Br  0.13735406  0.40829152  0.03143169    -0.03000
C297        C  0.10925292  0.30170383  0.62907368    -0.09700
C298        C  0.09712599  0.27088488  0.64191517     0.06500
C299        C  0.08608133  0.26723326  0.66916157    -0.03400
C300        C  0.08822676  0.29432380  0.68313065    -0.07900
C301        C  0.10085061  0.32539143  0.67055347     0.05600
C302        C  0.11117930  0.32884889  0.64298882    -0.02900
Br303      Br  0.12814695  0.36944104  0.62279463    -0.02600
H304        H  0.11778679  0.30487875  0.60811363     0.09600
H305        H  0.07958375  0.29083407  0.70408165     0.07600
Br306      Br  0.06592836  0.22561968  0.68813058    -0.03000
C307        C  0.48745276  0.38174330  0.63646012    -0.09700
C308        C  0.45716745  0.36251591  0.65022087     0.06500
C309        C  0.45798318  0.35978814  0.67894192    -0.03400
C310        C  0.48860555  0.37395197  0.69276804    -0.07900
C311        C  0.01899048  0.39104239  0.67876207     0.05600
C312        C  0.01811885  0.39606452  0.65035194    -0.02900
Br313      Br  0.05766055  0.41888612  0.62868678    -0.02600
H314        H  0.48743784  0.38416551  0.61440961     0.09600
H315        H  0.48865286  0.36987972  0.71459972     0.07600
Br316      Br  0.41882834  0.33366191  0.70037614    -0.03000
C317        C  0.07631314  0.40961556  0.81368931    -0.09700
C318        C  0.08875854  0.39126301  0.80038606     0.06500
C319        C  0.09603396  0.37008092  0.81612485    -0.03400
C320        C  0.09129059  0.36814135  0.84433784    -0.07900
C321        C  0.07914380  0.38662412  0.85757459     0.05600
C322        C  0.07133901  0.40736565  0.84200898    -0.02900
Br323      Br  0.05634444  0.43499632  0.85844436    -0.02600
H324        H  0.07063854  0.42604048  0.80204993     0.09600
H325        H  0.09744461  0.35215215  0.85613936     0.07600
Br326      Br  0.11422234  0.34427167  0.80125208    -0.03000
C327        C  0.25310368  0.02828049  0.71625772    -0.09700
C328        C  0.27543624  0.01593018  0.71687512     0.06500
C329        C  0.26216120  0.48142238  0.71917682    -0.03400
C330        C  0.22761793  0.46030466  0.71918636    -0.07900
C331        C  0.20520485  0.47248302  0.71762886     0.05600
C332        C  0.21845038  0.00712123  0.71682832    -0.02900
Br333      Br  0.19114578  0.02751564  0.71710167    -0.02600
H334        H  0.26261502  0.05471103  0.71520909     0.09600
H335        H  0.21826488  0.43391339  0.72057747     0.07600
Br336      Br  0.28929536  0.46114947  0.72380409    -0.03000
C337        C  0.48550194  0.09591080  0.67999698    -0.09700
C338        C  0.45531951  0.08944621  0.66766782     0.06500
C339        C  0.45503511  0.09491981  0.63929701    -0.03400
C340        C  0.48493642  0.10976672  0.62472157    -0.07900
C341        C  0.01568335  0.11940381  0.63760324     0.05600
C342        C  0.01539698  0.11010887  0.66518913    -0.02900
Br343      Br  0.05477255  0.11727656  0.68431571    -0.02600
H344        H  0.48611021  0.09117703  0.70164583     0.09600
H345        H  0.48425269  0.11584507  0.60340344     0.07600
Br346      Br  0.41568453  0.08716216  0.61971104    -0.03000
C347        C  0.39509559  0.22107691  0.66888851    -0.09700
C348        C  0.38114759  0.21578519  0.64259924     0.06500
C349        C  0.37011200  0.18488856  0.62986993    -0.03400
C350        C  0.37152506  0.15957294  0.64417498    -0.07900
C351        C  0.38432591  0.16445647  0.67095516     0.05600
C352        C  0.39733266  0.19612305  0.68293078    -0.02900
Br353      Br  0.41864175  0.20773935  0.71817431    -0.02600
H354        H  0.40452098  0.24497223  0.67863753     0.09600
H355        H  0.36198629  0.13571798  0.63437367     0.07600
Br356      Br  0.35118682  0.17478145  0.59374976    -0.03000
C357        C  0.99729587  0.21990961  0.94502872    -0.09700
C358        C  0.46280245  0.20762058  0.94564009     0.06500
C359        C  0.45124769  0.23067103  0.94729452    -0.03400
C360        C  0.47396252  0.26478978  0.94750482    -0.07900
C361        C  0.00844884  0.27710709  0.94614143     0.05600
C362        C  0.02000927  0.25399221  0.94508509    -0.02900
Br363      Br  0.06625428  0.26634602  0.94280071    -0.02600
H364        H  0.00679386  0.20286902  0.94381125     0.09600
H365        H  0.46444971  0.28182687  0.94851691     0.07600
Br366      Br  0.40494122  0.21793446  0.94969516    -0.03000
C367        C  0.38066209  0.99560440  0.96729812    -0.09700
C368        C  0.39041250  0.02596959  0.98035430     0.06500
C369        C  0.38704377  0.02611116  0.00901795    -0.03400
C370        C  0.37232073  0.49625364  0.02354433    -0.07900
C371        C  0.36010972  0.46562945  0.01021559     0.05600
C372        C  0.36566205  0.46564552  0.98183890    -0.02900
Br373      Br  0.34975541  0.42572025  0.96094595    -0.02600
H374        H  0.38281973  0.99492916  0.94531585     0.09600
H375        H  0.36826652  0.49689954  0.04525654     0.07600
Br376      Br  0.39693111  0.06528945  0.02923189    -0.03000
C377        C  0.30599505  0.08559288  0.99945105    -0.09700
C378        C  0.31519734  0.10089570  0.97379490     0.06500
C379        C  0.29750751  0.11557914  0.96255769    -0.03400
C380        C  0.27136950  0.11491660  0.97719448    -0.07900
C381        C  0.26267976  0.10035510  0.00320581     0.05600
C382        C  0.28006331  0.08513905  0.01420386    -0.02900
Br383      Br  0.26990311  0.06284229  0.04886612    -0.02600
H384        H  0.31922296  0.07398417  0.00822982     0.09600
H385        H  0.25851254  0.12692319  0.96850078     0.07600
Br386      Br  0.30935616  0.13947671  0.92864985    -0.03000
C387        C  0.41630210  0.12155307  0.83820277    -0.09700
C388        C  0.39722914  0.09299105  0.85376049     0.06500
C389        C  0.37664020  0.06278821  0.84027155    -0.03400
C390        C  0.37561113  0.06164742  0.81168827    -0.07900
C391        C  0.39373856  0.09047161  0.79612946     0.05600
C392        C  0.41423657  0.12070940  0.80966661    -0.02900
Br393      Br  0.44016025  0.16163304  0.79046934    -0.02600
H394        H  0.43195414  0.14498653  0.84835623     0.09600
H395        H  0.35955574  0.03829380  0.80158247     0.07600
Br396      Br  0.34967834  0.02235033  0.85973095    -0.03000
In397      In  0.39754597  0.60602484  0.93724242     1.36900
C398        C  0.34419698  0.60231036  0.96025694     0.77100
O399        O  0.38324052  0.55235685  0.94073701    -0.61400
O400        O  0.41516804  0.58491838  0.97114342    -0.52300
C401        C  0.39769315  0.59614921  0.88375799     0.69700
O402        O  0.37147979  0.58324944  0.89778289    -0.47100
C403        C  0.43986565  0.67115152  0.94327091     0.74400
O404        O  0.34864104  0.60500398  0.93478110    -0.59000
O405        O  0.44930941  0.64987717  0.94504541    -0.49100
O406        O  0.36686862  0.60105785  0.97365626    -0.55400
C407        C  0.39740485  0.55529740  0.96341881     0.84600
O408        O  0.42413821  0.61335543  0.89725640    -0.57300
O409        O  0.40923417  0.65874652  0.93850914    -0.60600
In410      In  0.37724654  0.58402606  0.71290738     1.36900
C411        C  0.38228893  0.63582709  0.68592664     0.77100
O412        O  0.43054378  0.59587180  0.70853494    -0.61400
O413        O  0.39657078  0.56726136  0.67749002    -0.52300
C414        C  0.38918395  0.58851772  0.76617752     0.69700
O415        O  0.38862730  0.61120397  0.75246793    -0.47100
C416        C  0.31192772  0.53971126  0.71522773     0.74400
O417        O  0.39339193  0.63771051  0.70981269    -0.59000
O418        O  0.33382027  0.53155925  0.71086180    -0.49100
O419        O  0.36838721  0.60706962  0.67592260    -0.55400
C420        C  0.42657247  0.58307503  0.68520646     0.84600
O421        O  0.38427578  0.56352899  0.75240540    -0.57300
O422        O  0.32367491  0.57041699  0.71778727    -0.60600
In423      In  0.10420107  0.90130565  0.71684834     1.36900
C424        C  0.10238919  0.85292867  0.68687019     0.77100
O425        O  0.04918509  0.88107237  0.71393235    -0.61400
O426        O  0.07918752  0.91890935  0.68617040    -0.52300
C427        C  0.09421867  0.89504801  0.77047257     0.69700
O428        O  0.09740136  0.87441630  0.75607109    -0.47100
C429        C  0.16879036  0.94799912  0.71716403     0.74400
O430        O  0.09371119  0.84940145  0.71159978    -0.59000
O431        O  0.14580114  0.95502438  0.71422874    -0.49100
O432        O  0.11226138  0.88158113  0.67761334    -0.55400
C433        C  0.05004543  0.89789656  0.69348368     0.84600
O434        O  0.09589918  0.91915442  0.75719514    -0.57300
O435        O  0.15829687  0.91749197  0.71955708    -0.60600
In436      In  0.07476297  0.87897818  0.94151179     1.36900
C437        C  0.12865418  0.88693571  0.96728821     0.77100
O438        O  0.08931974  0.93256441  0.94154840    -0.61400
O439        O  0.05994397  0.90370781  0.97442846    -0.52300
C440        C  0.07711129  0.88482875  0.88762746     0.69700
O441        O  0.09897181  0.88288393  0.90170209    -0.47100
C442        C  0.03142584  0.81369004  0.94523232     0.74400
O443        O  0.12842312  0.89270764  0.94211579    -0.59000
O444        O  0.02192258  0.83495793  0.94523532    -0.49100
O445        O  0.10128195  0.87740611  0.97921838    -0.55400
C446        C  0.07675410  0.93232149  0.96435235     0.84600
O447        O  0.05362802  0.88418423  0.90123694    -0.57300
O448        O  0.06244011  0.82628481  0.94401038    -0.60600
In449      In  0.40187881  0.79661841  0.38609823     1.36900
C450        C  0.35024529  0.74938640  0.35968908     0.77100
O451        O  0.38644469  0.83499960  0.38190956    -0.61400
O452        O  0.42081444  0.83597723  0.35314904    -0.52300
C453        C  0.40000120  0.80836878  0.43857897     0.69700
O454        O  0.37451070  0.78908654  0.42491440    -0.47100
C455        C  0.44452844  0.77344067  0.38462171     0.74400
O456        O  0.35060506  0.75240046  0.38531309    -0.59000
O457        O  0.45331497  0.80341453  0.37993980    -0.49100
O458        O  0.37645644  0.77037535  0.34794559    -0.55400
C459        C  0.40241755  0.84751369  0.36031027     0.84600
O460        O  0.42688563  0.82193792  0.42526063    -0.57300
O461        O  0.41423098  0.75596027  0.39050753    -0.60600
In462      In  0.37439545  0.79283034  0.60738918     1.36900
C463        C  0.37819624  0.74287620  0.62964656     0.77100
O464        O  0.42843768  0.83149486  0.61026283    -0.61400
O465        O  0.39729926  0.82864650  0.64277061    -0.52300
C466        C  0.38688277  0.80597307  0.55484682     0.69700
O467        O  0.39427502  0.78709306  0.56785460    -0.47100
C468        C  0.30899374  0.77208560  0.60953362     0.74400
O469        O  0.37730024  0.74632356  0.60414975    -0.59000
O470        O  0.33082180  0.80200766  0.61352341    -0.49100
O471        O  0.37673148  0.76487060  0.64357368    -0.55400
C472        C  0.42668681  0.84109937  0.63388573     0.84600
O473        O  0.37303837  0.81849512  0.56884633    -0.57300
O474        O  0.32097641  0.75345029  0.60527990    -0.60600
In475      In  0.19032199  0.60865234  0.04550353     1.36900
C476        C  0.23649919  0.60277638  0.01839818     0.77100
O477        O  0.15047442  0.55497602  0.04449161    -0.61400
O478        O  0.15172501  0.58529605  0.01188796    -0.52300
C479        C  0.18676218  0.59836082  0.09888715     0.69700
O480        O  0.20909753  0.59872086  0.08400590    -0.47100
C481        C  0.21002753  0.67367182  0.04402892     0.74400
O482        O  0.23222671  0.59790752  0.04373576    -0.59000
O483        O  0.17972590  0.65150212  0.04250820    -0.49100
O484        O  0.21706879  0.61089166  0.00701642    -0.55400
C485        C  0.13935244  0.55633428  0.02129300     0.84600
O486        O  0.16558161  0.60308754  0.08619867    -0.57300
O487        O  0.22952641  0.66224360  0.04598742    -0.60600
In488      In  0.20153358  0.59184167  0.26946161     1.36900
C489        C  0.24559789  0.64088367  0.29985380     0.77100
O490        O  0.17053909  0.61637980  0.27122253    -0.61400
O491        O  0.15603121  0.57406380  0.29611170    -0.52300
C492        C  0.19485631  0.59022955  0.21586962     0.69700
O493        O  0.22024701  0.61212965  0.22820259    -0.47100
C494        C  0.22318547  0.54832344  0.27328411     0.74400
O495        O  0.24166055  0.64386866  0.27464384    -0.59000
O496        O  0.19340527  0.54066349  0.27847671    -0.49100
O497        O  0.22704380  0.61231998  0.30931354    -0.55400
C498        C  0.15141998  0.59786300  0.28965347     0.84600
O499        O  0.17220529  0.56931225  0.23111226    -0.57300
O500        O  0.24137391  0.57815292  0.26661513    -0.60600
In501      In  0.08280440  0.70364873  0.37644802     1.36900
C502        C  0.13499078  0.75389895  0.35285480     0.77100
O503        O  0.09877646  0.66568769  0.37213175    -0.61400
O504        O  0.06895803  0.66828492  0.34045074    -0.52300
C505        C  0.08161606  0.69023731  0.42925657     0.69700
O506        O  0.10790714  0.71009892  0.41682089    -0.47100
C507        C  0.03857614  0.72487995  0.37698598     0.74400
O508        O  0.13435170  0.74751944  0.37797770    -0.59000
O509        O  0.03020709  0.69521994  0.37126144    -0.49100
O510        O  0.10868256  0.73454795  0.34005535    -0.55400
C511        C  0.08655284  0.65613808  0.34865977     0.84600
O512        O  0.05593302  0.67614501  0.41429462    -0.57300
O513        O  0.06914482  0.74291881  0.38187800    -0.60600
In514      In  0.09962858  0.69515921  0.59999493     1.36900
C515        C  0.09719031  0.74348818  0.62678911     0.77100
O516        O  0.04544990  0.65697894  0.60106412    -0.61400
O517        O  0.07587780  0.65476214  0.63225702    -0.52300
C518        C  0.09019923  0.68604710  0.54648981     0.69700
O519        O  0.08121740  0.70332343  0.55997708    -0.47100
C520        C  0.16505140  0.71648081  0.60372965     0.74400
O521        O  0.09601332  0.74160349  0.60104423    -0.59000
O522        O  0.14322405  0.68661674  0.60788863    -0.49100
O523        O  0.09939755  0.72055105  0.63851561    -0.55400
C524        C  0.04666020  0.64355730  0.62307183     0.84600
O525        O  0.10306765  0.67245390  0.56056681    -0.57300
O526        O  0.15304502  0.73471034  0.59756503    -0.60600
In527      In  0.29543638  0.91271312  0.27150970     1.36900
C528        C  0.24508233  0.86171092  0.29621756     0.77100
O529        O  0.33382451  0.89695402  0.27488254    -0.61400
O530        O  0.33312495  0.92779941  0.30605030    -0.52300
C531        C  0.30558851  0.90958136  0.21851413     0.69700
O532        O  0.28740599  0.88451024  0.23280938    -0.47100
C533        C  0.27627351  0.95821578  0.27309860     0.74400
O534        O  0.24877815  0.86364277  0.27067775    -0.59000
O535        O  0.30631744  0.96563427  0.27659952    -0.49100
O536        O  0.26738817  0.88621157  0.30907997    -0.55400
C537        C  0.34506622  0.91023293  0.29774297     0.84600
O538        O  0.31906271  0.93664049  0.23147606    -0.57300
O539        O  0.25672429  0.92791340  0.26892783    -0.60600
In540      In  0.28654529  0.88205349  0.04915096     1.36900
C541        C  0.23864835  0.88569386  0.02220561     0.77100
O542        O  0.32112185  0.93650831  0.04591158    -0.61400
O543        O  0.32867605  0.90595816  0.01838701    -0.52300
C544        C  0.30002394  0.89402336  0.10197271     0.69700
O545        O  0.28007468  0.90042988  0.08932692    -0.47100
C546        C  0.26402320  0.81677394  0.04587697     0.74400
O547        O  0.24002966  0.88553830  0.04798282    -0.59000
O548        O  0.29352937  0.83831821  0.03980885    -0.49100
O549        O  0.26173408  0.88365274  0.01051358    -0.55400
C550        C  0.33671859  0.93512263  0.02542940     0.84600
O551        O  0.31309731  0.88104597  0.08758596    -0.57300
O552        O  0.24635531  0.82892894  0.05343449    -0.60600
C553        C  0.31154101  0.93281729  0.17189219    -0.09700
C554        C  0.30929375  0.90739246  0.18876080     0.06500
C555        C  0.30822414  0.87937265  0.17664738    -0.03400
C556        C  0.30691935  0.87615639  0.14817434    -0.07900
C557        C  0.30655144  0.90044091  0.13144866     0.05600
C558        C  0.31018179  0.92954255  0.14344460    -0.02900
Br559      Br  0.31441800  0.96590008  0.12183917    -0.02600
H560        H  0.31314634  0.95483542  0.18085919     0.09600
H561        H  0.30494506  0.85401995  0.13911739     0.07600
Br562      Br  0.30934765  0.84517832  0.19783911    -0.03000
C563        C  0.21648204  0.83320978  0.33893283    -0.09700
C564        C  0.21707028  0.83343389  0.31021517     0.06500
C565        C  0.19071310  0.80698615  0.29589793    -0.03400
C566        C  0.16470200  0.78143266  0.31037191    -0.07900
C567        C  0.16390903  0.78140819  0.33905399     0.05600
C568        C  0.19031577  0.80772212  0.35339588    -0.02900
Br569      Br  0.19189910  0.81168567  0.39251094    -0.02600
H570        H  0.23635500  0.85324177  0.35034836     0.09600
H571        H  0.14478033  0.76142698  0.29897044     0.07600
Br572      Br  0.18755948  0.80394251  0.25671830    -0.03000
C573        C  0.05724801  0.67860483  0.50420569    -0.09700
C574        C  0.08666214  0.68300956  0.51650858     0.06500
C575        C  0.11321410  0.68722378  0.49984597    -0.03400
C576        C  0.11055079  0.68844705  0.47144546    -0.07900
C577        C  0.08145808  0.68483010  0.45905991     0.05600
C578        C  0.05422912  0.67899006  0.47572323    -0.02900
Br579      Br  0.01333582  0.67405196  0.46118365    -0.02600
H580        H  0.03669765  0.67538509  0.51685022     0.09600
H581        H  0.13168022  0.69297016  0.45897235     0.07600
Br582      Br  0.15485642  0.69461441  0.51475895    -0.03000
C583        C  0.27001319  0.53671170  0.26725691    -0.09700
C584        C  0.23644480  0.52493271  0.27434905     0.06500
C585        C  0.21677513  0.99127811  0.28161432    -0.03400
C586        C  0.23056985  0.97046056  0.28120938    -0.07900
C587        C  0.26396889  0.98221234  0.27402607     0.05600
C588        C  0.28384044  0.51585883  0.26708572    -0.02900
Br589      Br  0.32926296  0.53443698  0.25554610    -0.02600
H590        H  0.28569816  0.56235448  0.26142265     0.09600
H591        H  0.21490990  0.94467860  0.28670871     0.07600
Br592      Br  0.17099070  0.97162298  0.29236880    -0.03000
C593        C  0.11595376  0.62434280  0.28960615    -0.09700
C594        C  0.12770118  0.60570706  0.30363076     0.06500
C595        C  0.12118598  0.60007657  0.33185681    -0.03400
C596        C  0.10491767  0.61436850  0.34555938    -0.07900
C597        C  0.09512984  0.63479539  0.33193571     0.05600
C598        C  0.09994364  0.63892824  0.30338741    -0.02900
Br599      Br  0.08974222  0.66785464  0.28260085    -0.02600
H600        H  0.12105664  0.62930251  0.26798365     0.09600
H601        H  0.10188051  0.61124251  0.36752923     0.07600
Br602      Br  0.13820668  0.57750900  0.35383751    -0.03000
C603        C  0.21604810  0.75882406  0.04713565    -0.09700
C604        C  0.25062962  0.78024896  0.04450633     0.06500
C605        C  0.27119147  0.76604838  0.04108861    -0.03400
C606        C  0.25719754  0.73156717  0.04092176    -0.07900
C607        C  0.22267732  0.71011050  0.04365797     0.05600
C608        C  0.20197879  0.72425723  0.04651036    -0.02900
Br609      Br  0.15448181  0.69820969  0.05008943    -0.02600
H610        H  0.19963264  0.76900161  0.04964266     0.09600
H611        H  0.27370478  0.72146932  0.03857428     0.07600
Br612      Br  0.31866500  0.79181996  0.03702048    -0.03000
C613        C  0.21671135  0.59914386  0.14103558    -0.09700
C614        C  0.18689351  0.59387057  0.12880697     0.06500
C615        C  0.15885634  0.58493836  0.14550736    -0.03400
C616        C  0.16159812  0.58273431  0.17385716    -0.07900
C617        C  0.19193476  0.58963808  0.18595109     0.05600
C618        C  0.21944833  0.59715286  0.16924806    -0.02900
Br619      Br  0.26098741  0.60350671  0.18360799    -0.02600
H620        H  0.23837711  0.60539073  0.12863201     0.09600
H621        H  0.14017669  0.57646470  0.18657666     0.07600
Br622      Br  0.11608912  0.57477844  0.13120515    -0.03000
C623        C  0.25119983  0.72440749  0.61063424    -0.09700
C624        C  0.27229440  0.75892515  0.60935661     0.06500
C625        C  0.25760788  0.77909432  0.60651311    -0.03400
C626        C  0.22284761  0.76456541  0.60486382    -0.07900
C627        C  0.20175114  0.72999501  0.60598298     0.05600
C628        C  0.21648016  0.70987622  0.60896234    -0.02900
Br629      Br  0.19128043  0.66242970  0.60992678    -0.02600
H630        H  0.26180353  0.70832832  0.61270533     0.09600
H631        H  0.21227530  0.78063311  0.60250641     0.07600
Br632      Br  0.28313702  0.82639384  0.60347658    -0.03000
C633        C  0.00188670  0.78245504  0.37937831    -0.09700
C634        C  0.46787706  0.76010115  0.38309665     0.06500
C635        C  0.45738839  0.72589617  0.38494496    -0.03400
C636        C  0.48065146  0.71503877  0.38224996    -0.07900
C637        C  0.01467776  0.73750981  0.37855107     0.05600
C638        C  0.02520331  0.77170909  0.37749981    -0.02900
Br639      Br  0.07087771  0.80564557  0.37321145    -0.02600
H640        H  0.01061917  0.80871837  0.37812811     0.09600
H641        H  0.47211709  0.68882619  0.38366853     0.07600
Br642      Br  0.41205436  0.69229037  0.39144070    -0.03000
C643        C  0.38473972  0.88980215  0.35732857    -0.09700
C644        C  0.39697370  0.87133491  0.34400327     0.06500
C645        C  0.39757044  0.87146760  0.31517242    -0.03400
C646        C  0.38304240  0.88697013  0.30053316    -0.07900
C647        C  0.36786135  0.90273153  0.31389739     0.05600
C648        C  0.37037872  0.90551235  0.34268856    -0.02900
Br649      Br  0.35160003  0.92693253  0.36376055    -0.02600
H650        H  0.38443786  0.89031300  0.37948610     0.09600
H651        H  0.38176005  0.88480741  0.27843659     0.07600
Br652      Br  0.41399038  0.84773787  0.29433136    -0.03000
C653        C  0.29180190  0.69832047  0.30275726    -0.09700
C654        C  0.27050616  0.66878592  0.31638789     0.06500
C655        C  0.27401872  0.66700361  0.34497928    -0.03400
C656        C  0.29974391  0.69388234  0.35878134    -0.07900
C657        C  0.32190577  0.72280818  0.34475916     0.05600
C658        C  0.31704556  0.72521540  0.31657863    -0.02900
Br659      Br  0.34264560  0.76469335  0.29561795    -0.02600
H660        H  0.28899338  0.70063122  0.28098015     0.09600
H661        H  0.30275855  0.69189736  0.38055746     0.07600
Br662      Br  0.24474284  0.62937402  0.36675621    -0.03000
C663        C  0.36810024  0.81187842  0.50880462    -0.09700
C664        C  0.39285523  0.81170622  0.52535256     0.06500
C665        C  0.42158621  0.81429477  0.51312934    -0.03400
C666        C  0.42440183  0.81545492  0.48471662    -0.07900
C667        C  0.39852781  0.81308030  0.46811951     0.05600
C668        C  0.37050855  0.81214268  0.48033842    -0.02900
Br669      Br  0.33482864  0.81114465  0.45929232    -0.02600
H670        H  0.34603349  0.81016260  0.51800064     0.09600
H671        H  0.44616548  0.81646101  0.47555228     0.07600
Br672      Br  0.45766247  0.81610172  0.53410595    -0.03000
C673        C  0.10221857  0.99351053  0.96387417    -0.09700
C674        C  0.08448820  0.96375466  0.97850956     0.06500
C675        C  0.08000940  0.96567996  0.00688962    -0.03400
C676        C  0.09611067  0.49650521  0.02017565    -0.09100
C677        C  0.11631003  0.52592648  0.00577900     0.05600
C678        C  0.11811302  0.52424410  0.97707675    -0.02900
Br679      Br  0.14556098  0.56211123  0.95482984    -0.02600
H680        H  0.10574880  0.99284890  0.94205564     0.09600
H681        H  0.09410430  0.49728489  0.04218686     0.07600
Br682      Br  0.05442957  0.92741462  0.02923300    -0.03000
C683        C  0.18046043  0.88383433  0.96607489    -0.09700
C684        C  0.15816446  0.88954148  0.98122556     0.06500
C685        C  0.16381387  0.89607887  0.00941861    -0.03400
C686        C  0.19036574  0.89501914  0.02212743    -0.07900
C687        C  0.21198855  0.88796895  0.00723575     0.05600
C688        C  0.20724012  0.88305919  0.97866973    -0.02900
Br689      Br  0.23523173  0.87415503  0.95538975    -0.02600
H690        H  0.17651040  0.87899923  0.94431029     0.09600
H691        H  0.19410453  0.89983155  0.04389111     0.07600
Br692      Br  0.13735462  0.90829110  0.03143169    -0.03000
C693        C  0.10925287  0.80170364  0.62907359    -0.09700
C694        C  0.09712588  0.77088465  0.64191529     0.06500
C695        C  0.08608112  0.76723302  0.66916164    -0.03400
C696        C  0.08822660  0.79432356  0.68313056    -0.07900
C697        C  0.10085032  0.82539116  0.67055357     0.05600
C698        C  0.11117919  0.82884868  0.64298896    -0.02900
Br699      Br  0.12814728  0.86944097  0.62279485    -0.02600
H700        H  0.11778657  0.80487850  0.60811444     0.09600
H701        H  0.07958304  0.79083362  0.70408220     0.07600
Br702      Br  0.06592828  0.72561949  0.68813070    -0.03000
C703        C  0.48745289  0.88174377  0.63645973    -0.09700
C704        C  0.45716756  0.86251626  0.65022102     0.06500
C705        C  0.45798332  0.85978862  0.67894198    -0.03400
C706        C  0.48860571  0.87395253  0.69276804    -0.07900
C707        C  0.01899065  0.89104287  0.67876207     0.05600
C708        C  0.01811896  0.89606479  0.65035203    -0.02900
Br709      Br  0.05766058  0.91888618  0.62868664    -0.02600
H710        H  0.48743802  0.88416564  0.61441120     0.09600
H711        H  0.48865305  0.86988035  0.71460015     0.07600
Br712      Br  0.41882849  0.83366240  0.70037621    -0.03000
C713        C  0.07631339  0.90961506  0.81368970    -0.09700
C714        C  0.08875803  0.89126258  0.80038603     0.06500
C715        C  0.09603282  0.87007976  0.81612491    -0.03400
C716        C  0.09128952  0.86814079  0.84433760    -0.07900
C717        C  0.07914365  0.88662376  0.85757469     0.05600
C718        C  0.07133918  0.90736578  0.84200900    -0.02900
Br719      Br  0.05634535  0.93499688  0.85844456    -0.02600
H720        H  0.07063852  0.92604206  0.80204906     0.09600
H721        H  0.09744357  0.85214990  0.85614007     0.07600
Br722      Br  0.11421993  0.84426952  0.80125202    -0.03000
C723        C  0.25310362  0.52828044  0.71625712    -0.09700
C724        C  0.27543625  0.51593040  0.71687503     0.06500
C725        C  0.26216125  0.98142232  0.71917623    -0.03400
C726        C  0.22761763  0.96030363  0.71918578    -0.07900
C727        C  0.20520487  0.97248304  0.71762882     0.05600
C728        C  0.21845043  0.50712144  0.71682781    -0.02900
Br729      Br  0.19114586  0.52751583  0.71710062    -0.02600
H730        H  0.26261515  0.55471156  0.71520803     0.09600
H731        H  0.21826585  0.93391586  0.72057623     0.07600
Br732      Br  0.28929525  0.96114903  0.72380246    -0.03000
C733        C  0.48550161  0.59590992  0.67999651    -0.09700
C734        C  0.45531925  0.58944540  0.66766727     0.06500
C735        C  0.45503493  0.59491898  0.63929635    -0.03400
C736        C  0.48493634  0.60976591  0.62472156    -0.07900
C737        C  0.01568314  0.61940320  0.63760294     0.05600
C738        C  0.01539664  0.61010804  0.66518872    -0.02900
Br739      Br  0.05477215  0.61727562  0.68431537    -0.02600
H740        H  0.48610981  0.59117622  0.70164511     0.09600
H741        H  0.48425267  0.61584486  0.60340136     0.07600
Br742      Br  0.41568428  0.58716099  0.61971037    -0.03000
C743        C  0.39509674  0.72107709  0.66888799    -0.09700
C744        C  0.38114785  0.71578507  0.64259900     0.06500
C745        C  0.37011137  0.68488818  0.62986990    -0.03400
C746        C  0.37152454  0.65957257  0.64417484    -0.07900
C747        C  0.38432617  0.66445629  0.67095476     0.05600
C748        C  0.39733384  0.69612311  0.68293011    -0.02900
Br749      Br  0.41864450  0.70773979  0.71817303    -0.02600
H750        H  0.40452273  0.74497232  0.67863668     0.09600
H751        H  0.36198483  0.63571725  0.63437375     0.07600
Br752      Br  0.35118494  0.67478077  0.59375016    -0.03000
C753        C  0.99729582  0.71990938  0.94502868    -0.09700
C754        C  0.46280235  0.70762040  0.94563953     0.06500
C755        C  0.45124757  0.73067095  0.94729362    -0.03400
C756        C  0.47396255  0.76478952  0.94750416    -0.07900
C757        C  0.00844894  0.77710688  0.94614127     0.05600
C758        C  0.02000929  0.75399198  0.94508528    -0.02900
Br759      Br  0.06625437  0.76634577  0.94280173    -0.02600
H760        H  0.00679381  0.70286867  0.94381157     0.09600
H761        H  0.46444948  0.78182722  0.94851590     0.07600
Br762      Br  0.40494110  0.71793447  0.94969333    -0.03000
C763        C  0.38066236  0.49560449  0.96729825    -0.09700
C764        C  0.39041254  0.52596971  0.98035440     0.06500
C765        C  0.38704376  0.52611139  0.00901810    -0.03400
C766        C  0.37232068  0.99625337  0.02354455    -0.07900
C767        C  0.36010968  0.96562921  0.01021525     0.05600
C768        C  0.36566178  0.96564536  0.98183861    -0.02900
Br769      Br  0.34975464  0.92572007  0.96094556    -0.02600
H770        H  0.38282016  0.49492918  0.94531646     0.09600
H771        H  0.36826704  0.99689911  0.04525509     0.07600
Br772      Br  0.39693123  0.56528979  0.02923188    -0.03000
C773        C  0.30599471  0.58559246  0.99945049    -0.09700
C774        C  0.31519719  0.60089549  0.97379451     0.06500
C775        C  0.29750739  0.61557923  0.96255740    -0.03400
C776        C  0.27136977  0.61491605  0.97719450    -0.07900
C777        C  0.26267945  0.60035477  0.00320539     0.05600
C778        C  0.28006301  0.58513844  0.01420338    -0.02900
Br779      Br  0.26990248  0.56284120  0.04886540    -0.02600
H780        H  0.31922262  0.57398351  0.00822919     0.09600
H781        H  0.25851126  0.62692460  0.96849983     0.07600
Br782      Br  0.30935648  0.63947730  0.92864988    -0.03000
C783        C  0.41630256  0.62155338  0.83820269    -0.09700
C784        C  0.39722881  0.59299046  0.85376002     0.06500
C785        C  0.37664007  0.56278803  0.84027118    -0.03400
C786        C  0.37561037  0.56164630  0.81168744    -0.07900
C787        C  0.39373871  0.59047156  0.79612911     0.05600
C788        C  0.41423650  0.62070891  0.80966615    -0.02900
Br789      Br  0.44016052  0.66163274  0.79046907    -0.02600
H790        H  0.43195265  0.64498393  0.84835491     0.09600
H791        H  0.35955743  0.53829623  0.80158315     0.07600
Br792      Br  0.34967789  0.52234994  0.85973038    -0.03000
In793      In  0.89754598  0.10602471  0.93724272     1.36900
C794        C  0.84419688  0.10230993  0.96025725     0.77100
O795        O  0.88324026  0.05235669  0.94073704    -0.61400
O796        O  0.91516823  0.08491805  0.97114337    -0.52300
C797        C  0.89769331  0.09614928  0.88375831     0.69700
O798        O  0.87147991  0.08324962  0.89778309    -0.47100
C799        C  0.93986563  0.17115141  0.94327143     0.74400
O800        O  0.84864110  0.10500384  0.93478146    -0.59000
O801        O  0.94930939  0.14987712  0.94504583    -0.49100
O802        O  0.86686848  0.10105728  0.97365658    -0.55400
C803        C  0.89740487  0.05529712  0.96341870     0.84600
O804        O  0.92413839  0.11335539  0.89725680    -0.57300
O805        O  0.90923406  0.15874635  0.93850977    -0.60600
In806      In  0.87724655  0.08402604  0.71290777     1.36900
C807        C  0.88228851  0.13582697  0.68592705     0.77100
O808        O  0.93054401  0.09587241  0.70853531    -0.61400
O809        O  0.89657112  0.06726177  0.67749036    -0.52300
C810        C  0.88918411  0.08851773  0.76617788     0.69700
O811        O  0.88862677  0.11120368  0.75246841    -0.47100
C812        C  0.81192776  0.03971088  0.71522798     0.74400
O813        O  0.89339165  0.13771045  0.70981305    -0.59000
O814        O  0.83382041  0.03155901  0.71086211    -0.49100
O815        O  0.86838692  0.10706948  0.67592300    -0.55400
C816        C  0.92657281  0.08307565  0.68520681     0.84600
O817        O  0.88427638  0.06352914  0.75240569    -0.57300
O818        O  0.82367485  0.07041659  0.71778766    -0.60600
In819      In  0.60420106  0.40130536  0.71684838     1.36900
C820        C  0.60238929  0.35292844  0.68687025     0.77100
O821        O  0.54918502  0.38107166  0.71393224    -0.61400
O822        O  0.57918743  0.41890906  0.68617058    -0.52300
C823        C  0.59421865  0.39504775  0.77047259     0.69700
O824        O  0.59740123  0.37441598  0.75607111    -0.47100
C825        C  0.66879032  0.44799908  0.71716404     0.74400
O826        O  0.59371174  0.34940130  0.71159988    -0.59000
O827        O  0.64580102  0.45502420  0.71422870    -0.49100
O828        O  0.61226111  0.38158087  0.67761330    -0.55400
C829        C  0.55004535  0.39789600  0.69348368     0.84600
O830        O  0.59589922  0.41915420  0.75719515    -0.57300
O831        O  0.65829693  0.41749197  0.71955719    -0.60600
In832      In  0.57476299  0.37897846  0.94151178     1.36900
C833        C  0.62865437  0.38693661  0.96728837     0.77100
O834        O  0.58931907  0.43256448  0.94154803    -0.61400
O835        O  0.55994410  0.40370806  0.97442850    -0.52300
C836        C  0.57711128  0.38482872  0.88762744     0.69700
O837        O  0.59897169  0.38288380  0.90170208    -0.47100
C838        C  0.53142600  0.31369037  0.94523244     0.74400
O839        O  0.62842341  0.39270896  0.94211604    -0.59000
O840        O  0.52192272  0.33495826  0.94523591    -0.49100
O841        O  0.60128190  0.37740615  0.97921841    -0.55400
C842        C  0.57675380  0.43232165  0.96435214     0.84600
O843        O  0.55362800  0.38418433  0.90123689    -0.57300
O844        O  0.56244019  0.32628511  0.94400984    -0.60600
In845      In  0.90187899  0.29661861  0.38609807     1.36900
C846        C  0.85024540  0.24938674  0.35968888     0.77100
O847        O  0.88644503  0.33499991  0.38190943    -0.61400
O848        O  0.92081498  0.33597762  0.35314907    -0.52300
C849        C  0.90000100  0.30836859  0.43857890     0.69700
O850        O  0.87451070  0.28908639  0.42491421    -0.47100
C851        C  0.94452869  0.27344093  0.38462142     0.74400
O852        O  0.85060521  0.25240083  0.38531289    -0.59000
O853        O  0.95331522  0.30341485  0.37993977    -0.49100
O854        O  0.87645657  0.27037562  0.34794538    -0.55400
C855        C  0.90241809  0.34751411  0.36031028     0.84600
O856        O  0.92688554  0.32193791  0.42526065    -0.57300
O857        O  0.91423122  0.25596045  0.39050711    -0.60600
In858      In  0.87439515  0.29283009  0.60738908     1.36900
C859        C  0.87819581  0.24287605  0.62964676     0.77100
O860        O  0.92843758  0.33149386  0.61026296    -0.61400
O861        O  0.89729901  0.32864671  0.64277022    -0.52300
C862        C  0.88688248  0.30597301  0.55484672     0.69700
O863        O  0.89427420  0.28709257  0.56785432    -0.47100
C864        C  0.80899339  0.27208519  0.60953320     0.74400
O865        O  0.87730049  0.24632364  0.60414992    -0.59000
O866        O  0.83082139  0.30200723  0.61352327    -0.49100
O867        O  0.87673031  0.26487013  0.64357378    -0.55400
C868        C  0.92668660  0.34109896  0.63388564     0.84600
O869        O  0.87303847  0.31849541  0.56884639    -0.57300
O870        O  0.82097613  0.25345000  0.60527932    -0.60600
In871      In  0.69032215  0.10865269  0.04550371     1.36900
C872        C  0.73649945  0.10277683  0.01839839     0.77100
O873        O  0.65047511  0.05497616  0.04449161    -0.61400
O874        O  0.65172496  0.08529633  0.01188832    -0.52300
C875        C  0.68676219  0.09836111  0.09888732     0.69700
O876        O  0.70909773  0.09872159  0.08400617    -0.47100
C877        C  0.71002753  0.17367212  0.04402900     0.74400
O878        O  0.73222691  0.09790797  0.04373601    -0.59000
O879        O  0.67972600  0.15150241  0.04250821    -0.49100
O880        O  0.71706913  0.11089209  0.00701662    -0.55400
C881        C  0.63935283  0.05633448  0.02129317     0.84600
O882        O  0.66558138  0.10308752  0.08619878    -0.57300
O883        O  0.72952651  0.16224395  0.04598763    -0.60600
In884      In  0.70153378  0.09184169  0.26946161     1.36900
C885        C  0.74559791  0.14088393  0.29985368     0.77100
O886        O  0.67053922  0.11637979  0.27122226    -0.61400
O887        O  0.65603131  0.07406392  0.29611156    -0.52300
C888        C  0.69485619  0.09022916  0.21586968     0.69700
O889        O  0.72024677  0.11212956  0.22820252    -0.47100
C890        C  0.72318593  0.04832366  0.27328441     0.74400
O891        O  0.74166094  0.14386870  0.27464366    -0.59000
O892        O  0.69340571  0.04066367  0.27847699    -0.49100
O893        O  0.72704358  0.11232031  0.30931357    -0.55400
C894        C  0.65142008  0.09786310  0.28965323     0.84600
O895        O  0.67220541  0.06931167  0.23111243    -0.57300
O896        O  0.74137428  0.07815309  0.26661521    -0.60600
In897      In  0.58280453  0.20364895  0.37644770     1.36900
C898        C  0.63499092  0.25389911  0.35285450     0.77100
O899        O  0.59877638  0.16568778  0.37213137    -0.61400
O900        O  0.56895807  0.16828516  0.34045032    -0.52300
C901        C  0.58161602  0.19023742  0.42925632     0.69700
O902        O  0.60790712  0.21009883  0.41682066    -0.47100
C903        C  0.53857640  0.22488035  0.37698573     0.74400
O904        O  0.63435183  0.24751951  0.37797741    -0.59000
O905        O  0.53020737  0.19522044  0.37126086    -0.49100
O906        O  0.60868274  0.23454821  0.34005503    -0.55400
C907        C  0.58655285  0.15613826  0.34865938     0.84600
O908        O  0.55593294  0.17614534  0.41429434    -0.57300
O909        O  0.56914505  0.24291909  0.38187796    -0.60600
In910      In  0.59962836  0.19515897  0.59999474     1.36900
C911        C  0.59719045  0.24348807  0.62678901     0.77100
O912        O  0.54544963  0.15697900  0.60106438    -0.61400
O913        O  0.57587775  0.15476203  0.63225696    -0.52300
C914        C  0.59019904  0.18604704  0.54648964     0.69700
O915        O  0.58121767  0.20332381  0.55997693    -0.47100
C916        C  0.66505108  0.21648036  0.60372926     0.74400
O917        O  0.59601264  0.24160297  0.60104415    -0.59000
O918        O  0.64322374  0.18661634  0.60788832    -0.49100
O919        O  0.59939828  0.22055125  0.63851547    -0.55400
C920        C  0.54666004  0.14355739  0.62307200     0.84600
O921        O  0.60306693  0.17245336  0.56056662    -0.57300
O922        O  0.65304473  0.23470997  0.59756464    -0.60600
In923      In  0.79543687  0.41271318  0.27150968     1.36900
C924        C  0.74508284  0.36171103  0.29621755     0.77100
O925        O  0.83382506  0.39695419  0.27488243    -0.61400
O926        O  0.83312558  0.42779968  0.30605014    -0.52300
C927        C  0.80558897  0.40958148  0.21851411     0.69700
O928        O  0.78740690  0.38451028  0.23280943    -0.47100
C929        C  0.77627384  0.45821569  0.27309849     0.74400
O930        O  0.74877869  0.36364284  0.27067775    -0.59000
O931        O  0.80631778  0.46563430  0.27659948    -0.49100
O932        O  0.76738864  0.38621169  0.30907997    -0.55400
C933        C  0.84506679  0.41023318  0.29774289     0.84600
O934        O  0.81906272  0.43664067  0.23147598    -0.57300
O935        O  0.75672473  0.42791325  0.26892776    -0.60600
In936      In  0.78654520  0.38205378  0.04915098     1.36900
C937        C  0.73864865  0.38569496  0.02220572     0.77100
O938        O  0.82112240  0.43650852  0.04591202    -0.61400
O939        O  0.82867575  0.40595829  0.01838692    -0.52300
C940        C  0.80002391  0.39402365  0.10197268     0.69700
O941        O  0.78007465  0.40043021  0.08932694    -0.47100
C942        C  0.76402312  0.31677420  0.04587706     0.74400
O943        O  0.74002981  0.38553901  0.04798293    -0.59000
O944        O  0.79352924  0.33831850  0.03980887    -0.49100
O945        O  0.76173425  0.38365365  0.01051363    -0.55400
C946        C  0.83671880  0.43512276  0.02542958     0.84600
O947        O  0.81309729  0.38104630  0.08758590    -0.57300
O948        O  0.74635517  0.32892918  0.05343448    -0.60600
C949        C  0.81154130  0.43281738  0.17189213    -0.09700
C950        C  0.80929413  0.40739270  0.18876075     0.06500
C951        C  0.80822438  0.37937284  0.17664722    -0.03400
C952        C  0.80691948  0.37615665  0.14817419    -0.07900
C953        C  0.80655156  0.40044120  0.13144860     0.05600
C954        C  0.81018197  0.42954287  0.14344461    -0.02900
Br955      Br  0.81441793  0.46590032  0.12183923    -0.02600
H956        H  0.81314690  0.45483629  0.18085949     0.09600
H957        H  0.80494518  0.35402026  0.13911717     0.07600
Br958      Br  0.80934769  0.34517828  0.19783874    -0.03000
C959        C  0.71648288  0.33320955  0.33893279    -0.09700
C960        C  0.71707064  0.33343401  0.31021504     0.06500
C961        C  0.69071313  0.30698689  0.29589779    -0.03400
C962        C  0.66470157  0.28143297  0.31037150    -0.07900
C963        C  0.66390937  0.28140841  0.33905385     0.05600
C964        C  0.69031638  0.30772177  0.35339572    -0.02900
Br965      Br  0.69190020  0.31168481  0.39251085    -0.02600
H966        H  0.73635576  0.35324072  0.35034813     0.09600
H967        H  0.64478105  0.26142918  0.29897078     0.07600
Br968      Br  0.68755877  0.30394401  0.25671813    -0.03000
C969        C  0.55724846  0.17860501  0.50420510    -0.09700
C970        C  0.58666177  0.18300958  0.51650848     0.06500
C971        C  0.61321388  0.18722396  0.49984584    -0.03400
C972        C  0.61055110  0.18844747  0.47144506    -0.07900
C973        C  0.58145790  0.18483028  0.45905976     0.05600
C974        C  0.55422883  0.17899008  0.47572309    -0.02900
Br975      Br  0.51333552  0.17405167  0.46118339    -0.02600
H976        H  0.53669500  0.17538453  0.51685146     0.09600
H977        H  0.63167855  0.19297008  0.45897312     0.07600
Br978      Br  0.65485625  0.19461461  0.51475878    -0.03000
C979        C  0.77001361  0.03671179  0.26725714    -0.09700
C980        C  0.73644532  0.02493298  0.27434940     0.06500
C981        C  0.71677494  0.49127742  0.28161389    -0.03400
C982        C  0.73056999  0.47046030  0.28120895    -0.07900
C983        C  0.76396897  0.48221201  0.27402594     0.05600
C984        C  0.78384080  0.01585891  0.26708587    -0.02900
Br985      Br  0.82926316  0.03443686  0.25554593    -0.02600
H986        H  0.78569868  0.06235468  0.26142285     0.09600
H987        H  0.71490946  0.44467726  0.28670828     0.07600
Br988      Br  0.67099030  0.47162201  0.29236778    -0.03000
C989        C  0.61595390  0.12434296  0.28960577    -0.09700
C990        C  0.62770126  0.10570719  0.30363042     0.06500
C991        C  0.62118611  0.10007685  0.33185641    -0.03400
C992        C  0.60491756  0.11436859  0.34555950    -0.07900
C993        C  0.59512988  0.13479560  0.33193516     0.05600
C994        C  0.59994377  0.13892843  0.30338697    -0.02900
Br995      Br  0.58974251  0.16785493  0.28260039    -0.02600
H996        H  0.62105687  0.12930269  0.26798298     0.09600
H997        H  0.60188082  0.11124308  0.36752711     0.07600
Br998      Br  0.63820705  0.07750961  0.35383733    -0.03000
C999        C  0.71604812  0.25882422  0.04713599    -0.09700
C1000       C  0.75062952  0.28024921  0.04450641     0.06500
C1001       C  0.77119151  0.26604859  0.04108858    -0.03400
C1002       C  0.75719703  0.23156778  0.04092179    -0.07900
C1003       C  0.72267748  0.21011072  0.04365806     0.05600
C1004       C  0.70197879  0.22425746  0.04651073    -0.02900
Br1005     Br  0.65448196  0.19820990  0.05009061    -0.02600
H1006       H  0.69963256  0.26900174  0.04964313     0.09600
H1007       H  0.77370647  0.22146857  0.03857364     0.07600
Br1008     Br  0.81866497  0.29182026  0.03702046    -0.03000
C1009       C  0.71671205  0.09914453  0.14103529    -0.09700
C1010       C  0.68689314  0.09387052  0.12880721     0.06500
C1011       C  0.65885589  0.08493745  0.14550748    -0.03400
C1012       C  0.66159787  0.08273317  0.17385712    -0.07900
C1013       C  0.69193448  0.08963757  0.18595120     0.05600
C1014       C  0.71944814  0.09715305  0.16924824    -0.02900
Br1015     Br  0.76098766  0.10350764  0.18360790    -0.02600
H1016       H  0.73837466  0.10539114  0.12863373     0.09600
H1017       H  0.64017517  0.07646280  0.18657732     0.07600
Br1018     Br  0.61608847  0.07477663  0.13120510    -0.03000
C1019       C  0.75119962  0.22440684  0.61063329    -0.09700
C1020       C  0.77229402  0.25892472  0.60935602     0.06500
C1021       C  0.75760748  0.27909393  0.60651290    -0.03400
C1022       C  0.72284744  0.26456471  0.60486377    -0.07900
C1023       C  0.70175078  0.22999463  0.60598248     0.05600
C1024       C  0.71647983  0.20987577  0.60896148    -0.02900
Br1025     Br  0.69128017  0.16242923  0.60992552    -0.02600
H1026       H  0.76180276  0.20832845  0.61270404     0.09600
H1027       H  0.71227428  0.28063370  0.60250635     0.07600
Br1028     Br  0.78313662  0.32639345  0.60347679    -0.03000
C1029       C  0.50188708  0.28245607  0.37937849    -0.09700
C1030       C  0.96787735  0.26010151  0.38309629     0.06500
C1031       C  0.95738868  0.22589649  0.38494444    -0.03400
C1032       C  0.98065178  0.21503919  0.38224940    -0.07900
C1033       C  0.51467803  0.23751024  0.37855087     0.05600
C1034       C  0.52520350  0.27170935  0.37750002    -0.02900
Br1035     Br  0.57087799  0.30564612  0.37321227    -0.02600
H1036       H  0.51061840  0.30871607  0.37812869     0.09600
H1037       H  0.97211735  0.18882641  0.38366781     0.07600
Br1038     Br  0.91205467  0.19229061  0.39144007    -0.03000
C1039       C  0.88474040  0.38980264  0.35732888    -0.09700
C1040       C  0.89697437  0.37133536  0.34400311     0.06500
C1041       C  0.89757103  0.37146792  0.31517227    -0.03400
C1042       C  0.88304303  0.38697048  0.30053351    -0.07900
C1043       C  0.86786199  0.40273188  0.31389716     0.05600
C1044       C  0.87037933  0.40551273  0.34268835    -0.02900
Br1045     Br  0.85160028  0.42693252  0.36376045    -0.02600
H1046       H  0.88443858  0.39031349  0.37948430     0.09600
H1047       H  0.88176050  0.38480750  0.27843472     0.07600
Br1048     Br  0.91399080  0.34773795  0.29433140    -0.03000
C1049       C  0.79180181  0.19832079  0.30275668    -0.09700
C1050       C  0.77050611  0.16878622  0.31638787     0.06500
C1051       C  0.77401862  0.16700401  0.34497917    -0.03400
C1052       C  0.79974387  0.19388275  0.35878116    -0.07900
C1053       C  0.82190586  0.22280849  0.34475896     0.05600
C1054       C  0.81704562  0.22521565  0.31657849    -0.02900
Br1055     Br  0.84264586  0.26469338  0.29561756    -0.02600
H1056       H  0.78899360  0.20063129  0.28098137     0.09600
H1057       H  0.80275853  0.19189781  0.38055755     0.07600
Br1058     Br  0.74474266  0.12937447  0.36675614    -0.03000
C1059       C  0.86810051  0.31187816  0.50880414    -0.09700
C1060       C  0.89285467  0.31170624  0.52535252     0.06500
C1061       C  0.92158605  0.31429497  0.51312924    -0.03400
C1062       C  0.92440105  0.31545503  0.48471682    -0.07900
C1063       C  0.89852764  0.31308012  0.46811940     0.05600
C1064       C  0.87050793  0.31214223  0.48033836    -0.02900
Br1065     Br  0.83482795  0.31114363  0.45929210    -0.02600
H1066       H  0.84603039  0.31016187  0.51800147     0.09600
H1067       H  0.94616692  0.31646139  0.47555161     0.07600
Br1068     Br  0.95766225  0.31610219  0.53410599    -0.03000
C1069       C  0.60221802  0.49351069  0.96387381    -0.09700
C1070       C  0.58448788  0.46375483  0.97850931     0.06500
C1071       C  0.58000939  0.46568014  0.00688932    -0.03400
C1072       C  0.59611078  0.99650551  0.02017577    -0.09100
C1073       C  0.61631062  0.02592678  0.00577898     0.05600
C1074       C  0.61811421  0.02424446  0.97707693    -0.02900
Br1075     Br  0.64556291  0.06211161  0.95483024    -0.02600
H1076       H  0.60574813  0.49284906  0.94205516     0.09600
H1077       H  0.59410405  0.99728511  0.04218601     0.07600
Br1078     Br  0.55442990  0.42741487  0.02923296    -0.03000
C1079       C  0.68046148  0.38383694  0.96607466    -0.09700
C1080       C  0.65816475  0.38954272  0.98122584     0.06500
C1081       C  0.66381362  0.39607919  0.00941893    -0.03400
C1082       C  0.69036565  0.39501964  0.02212793    -0.07900
C1083       C  0.71198903  0.38797042  0.00723583     0.05600
C1084       C  0.70724138  0.38306209  0.97866973    -0.02900
Br1085     Br  0.73523442  0.37416042  0.95538926    -0.02600
H1086       H  0.67651213  0.37900293  0.94431098     0.09600
H1087       H  0.69410365  0.39983078  0.04389103     0.07600
Br1088     Br  0.63735359  0.40829024  0.03143226    -0.03000
C1089       C  0.60925239  0.30170334  0.62907332    -0.09700
C1090       C  0.59712600  0.27088450  0.64191527     0.06500
C1091       C  0.58608193  0.26723303  0.66916167    -0.03400
C1092       C  0.58822709  0.29432345  0.68313131    -0.07900
C1093       C  0.60085047  0.32539102  0.67055340     0.05600
C1094       C  0.61117855  0.32884834  0.64298878    -0.02900
Br1095     Br  0.62814528  0.36944031  0.62279434    -0.02600
H1096       H  0.61778536  0.30487802  0.60811408     0.09600
H1097       H  0.57958516  0.29083404  0.70408044     0.07600
Br1098     Br  0.56592990  0.22561970  0.68813111    -0.03000
C1099       C  0.98745264  0.38174345  0.63646019    -0.09700
C1100       C  0.95716734  0.36251581  0.65022082     0.06500
C1101       C  0.95798302  0.35978794  0.67894189    -0.03400
C1102       C  0.98860537  0.37395182  0.69276792    -0.07900
C1103       C  0.51899062  0.39104224  0.67876199     0.05600
C1104       C  0.51811899  0.39606424  0.65035187    -0.02900
Br1105     Br  0.55766068  0.41888540  0.62868663    -0.02600
H1106       H  0.98743778  0.38416570  0.61440957     0.09600
H1107       H  0.98865265  0.36987954  0.71460006     0.07600
Br1108     Br  0.91882813  0.33366143  0.70037595    -0.03000
C1109       C  0.57631363  0.40961494  0.81368978    -0.09700
C1110       C  0.58875793  0.39126235  0.80038600     0.06500
C1111       C  0.59603247  0.37007940  0.81612484    -0.03400
C1112       C  0.59128929  0.36814010  0.84433781    -0.07900
C1113       C  0.57914354  0.38662369  0.85757463     0.05600
C1114       C  0.57133941  0.40736587  0.84200898    -0.02900
Br1115     Br  0.55634617  0.43499740  0.85844457    -0.02600
H1116       H  0.57063884  0.42604279  0.80204871     0.09600
H1117       H  0.59744261  0.35215052  0.85613922     0.07600
Br1118     Br  0.61421900  0.34426855  0.80125202    -0.03000
C1119       C  0.75310370  0.02828002  0.71625794    -0.09700
C1120       C  0.77543629  0.01592991  0.71687511     0.06500
C1121       C  0.76216111  0.48142228  0.71917654    -0.03400
C1122       C  0.72761755  0.46030372  0.71918608    -0.07900
C1123       C  0.70520479  0.47248303  0.71762884     0.05600
C1124       C  0.71845047  0.00712101  0.71682852    -0.02900
Br1125     Br  0.69114584  0.02751538  0.71710228    -0.02600
H1126       H  0.76261536  0.05471139  0.71520950     0.09600
H1127       H  0.71826574  0.43391590  0.72057683     0.07600
Br1128     Br  0.78929507  0.46114906  0.72380346    -0.03000
C1129       C  0.98550214  0.09591105  0.67999673    -0.09700
C1130       C  0.95531974  0.08944643  0.66766766     0.06500
C1131       C  0.95503534  0.09492004  0.63929668    -0.03400
C1132       C  0.98493668  0.10976681  0.62472202    -0.07900
C1133       C  0.51568314  0.11940352  0.63760354     0.05600
C1134       C  0.51539678  0.11010860  0.66518923    -0.02900
Br1135     Br  0.55477237  0.11727612  0.68431573    -0.02600
H1136       H  0.98611040  0.09117723  0.70164576     0.09600
H1137       H  0.98425289  0.11584586  0.60340108     0.07600
Br1138     Br  0.91568477  0.08716238  0.61971083    -0.03000
C1139       C  0.89509542  0.22107673  0.66888859    -0.09700
C1140       C  0.88114732  0.21578493  0.64259932     0.06500
C1141       C  0.87011172  0.18488832  0.62986998    -0.03400
C1142       C  0.87152485  0.15957276  0.64417502    -0.07900
C1143       C  0.88432564  0.16445616  0.67095518     0.05600
C1144       C  0.89733244  0.19612276  0.68293080    -0.02900
Br1145     Br  0.91864160  0.20773907  0.71817430    -0.02600
H1146       H  0.90452066  0.24497170  0.67863750     0.09600
H1147       H  0.86198576  0.13571743  0.63437363     0.07600
Br1148     Br  0.85118657  0.17478134  0.59374979    -0.03000
C1149       C  0.49729585  0.21991013  0.94502895    -0.09700
C1150       C  0.96280221  0.20762040  0.94564006     0.06500
C1151       C  0.95124749  0.23067072  0.94729456    -0.03400
C1152       C  0.97396223  0.26478961  0.94750483    -0.07900
C1153       C  0.50844904  0.27710732  0.94614150     0.05600
C1154       C  0.52000950  0.25399229  0.94508531    -0.02900
Br1155     Br  0.56625448  0.26634607  0.94280131    -0.02600
H1156       H  0.50679462  0.20286795  0.94381143     0.09600
H1157       H  0.96444958  0.28182635  0.94851706     0.07600
Br1158     Br  0.90494102  0.21793416  0.94969536    -0.03000
C1159       C  0.88066243  0.99560421  0.96729790    -0.09700
C1160       C  0.89041265  0.02596941  0.98035422     0.06500
C1161       C  0.88704396  0.02611105  0.00901780    -0.03400
C1162       C  0.87232109  0.49625355  0.02354425    -0.07900
C1163       C  0.86011005  0.46562934  0.01021558     0.05600
C1164       C  0.86566227  0.46564536  0.98183889    -0.02900
Br1165     Br  0.84975549  0.42572002  0.96094595    -0.02600
H1166       H  0.88281998  0.99492894  0.94531627     0.09600
H1167       H  0.86826698  0.49689944  0.04525668     0.07600
Br1168     Br  0.89693103  0.06528933  0.02923169    -0.03000
C1169       C  0.80599466  0.08559263  0.99945083    -0.09700
C1170       C  0.81519716  0.10089515  0.97379482     0.06500
C1171       C  0.79750733  0.11557875  0.96255757    -0.03400
C1172       C  0.77136958  0.11491621  0.97719449    -0.07900
C1173       C  0.76267970  0.10035492  0.00320573     0.05600
C1174       C  0.78006326  0.08513873  0.01420384    -0.02900
Br1175     Br  0.76990296  0.06284207  0.04886611    -0.02600
H1176       H  0.81922332  0.07398315  0.00823012     0.09600
H1177       H  0.75851219  0.12692332  0.96850045     0.07600
Br1178     Br  0.80935599  0.13947625  0.92864975    -0.03000
C1179       C  0.91630227  0.12155301  0.83820280    -0.09700
C1180       C  0.89722923  0.09299072  0.85376041     0.06500
C1181       C  0.87664065  0.06278796  0.84027154    -0.03400
C1182       C  0.87561124  0.06164663  0.81168802    -0.07900
C1183       C  0.89373886  0.09047144  0.79612945     0.05600
C1184       C  0.91423662  0.12070910  0.80966654    -0.02900
Br1185     Br  0.94016014  0.16163285  0.79046931    -0.02600
H1186       H  0.93195362  0.14498583  0.84835597     0.09600
H1187       H  0.85955736  0.03829494  0.80158307     0.07600
Br1188     Br  0.84967899  0.02234993  0.85973090    -0.03000
In1189     In  0.89754592  0.60602448  0.93724233     1.36900
C1190       C  0.84419678  0.60230975  0.96025684     0.77100
O1191       O  0.88324061  0.55235656  0.94073690    -0.61400
O1192       O  0.91516815  0.58491812  0.97114329    -0.52300
C1193       C  0.89769316  0.59614892  0.88375789     0.69700
O1194       O  0.87147977  0.58324924  0.89778270    -0.47100
C1195       C  0.93986560  0.67115124  0.94327080     0.74400
O1196       O  0.84864091  0.60500344  0.93478101    -0.59000
O1197       O  0.94930933  0.64987693  0.94504524    -0.49100
O1198       O  0.86686841  0.60105729  0.97365617    -0.55400
C1199       C  0.89740505  0.55529714  0.96341866     0.84600
O1200       O  0.92413824  0.61335501  0.89725637    -0.57300
O1201       O  0.90923403  0.65874618  0.93850918    -0.60600
In1202     In  0.87724645  0.58402579  0.71290735     1.36900
C1203       C  0.88228874  0.63582679  0.68592659     0.77100
O1204       O  0.93054379  0.59587177  0.70853484    -0.61400
O1205       O  0.89657081  0.56726124  0.67748992    -0.52300
C1206       C  0.88918411  0.58851756  0.76617742     0.69700
O1207       O  0.88862699  0.61120362  0.75246793    -0.47100
C1208       C  0.81192764  0.53971098  0.71522773     0.74400
O1209       O  0.89339161  0.63771018  0.70981267    -0.59000
O1210       O  0.83382014  0.53155898  0.71086179    -0.49100
O1211       O  0.86838708  0.60706930  0.67592253    -0.55400
C1212       C  0.92657252  0.58307505  0.68520634     0.84600
O1213       O  0.88427608  0.56352886  0.75240527    -0.57300
O1214       O  0.82367488  0.57041677  0.71778730    -0.60600
In1215     In  0.60420107  0.90130529  0.71684830     1.36900
C1216       C  0.60238897  0.85292819  0.68687010     0.77100
O1217       O  0.54918511  0.88107183  0.71393214    -0.61400
O1218       O  0.57918760  0.91890931  0.68617059    -0.52300
C1219       C  0.59421849  0.89504747  0.77047249     0.69700
O1220       O  0.59740158  0.87441595  0.75607104    -0.47100
C1221       C  0.66879038  0.94799883  0.71716392     0.74400
O1222       O  0.59371123  0.84940104  0.71159972    -0.59000
O1223       O  0.64580116  0.95502409  0.71422888    -0.49100
O1224       O  0.61226099  0.88158063  0.67761322    -0.55400
C1225       C  0.55004549  0.89789632  0.69348367     0.84600
O1226       O  0.59589869  0.91915372  0.75719503    -0.57300
O1227       O  0.65829688  0.91749164  0.71955682    -0.60600
In1228     In  0.57476327  0.87897832  0.94151183     1.36900
C1229       C  0.62865445  0.88693586  0.96728838     0.77100
O1230       O  0.58932012  0.93256454  0.94154832    -0.61400
O1231       O  0.55994427  0.90370808  0.97442841    -0.52300
C1232       C  0.57711136  0.88482870  0.88762744     0.69700
O1233       O  0.59897168  0.88288355  0.90170198    -0.47100
C1234       C  0.53142608  0.81369023  0.94523245     0.74400
O1235       O  0.62842356  0.89270821  0.94211601    -0.59000
O1236       O  0.52192286  0.83495819  0.94523595    -0.49100
O1237       O  0.60128206  0.87740575  0.97921841    -0.55400
C1238       C  0.57675445  0.93232173  0.96435221     0.84600
O1239       O  0.55362827  0.88418456  0.90123701    -0.57300
O1240       O  0.56244024  0.82628494  0.94400986    -0.60600
In1241     In  0.90187902  0.79661858  0.38609807     1.36900
C1242       C  0.85024533  0.74938654  0.35968910     0.77100
O1243       O  0.88644535  0.83500014  0.38190950    -0.61400
O1244       O  0.92081466  0.83597727  0.35314879    -0.52300
C1245       C  0.90000124  0.80836868  0.43857885     0.69700
O1246       O  0.87451079  0.78908677  0.42491415    -0.47100
C1247       C  0.94452858  0.77344073  0.38462154     0.74400
O1248       O  0.85060531  0.75240061  0.38531312    -0.59000
O1249       O  0.95331518  0.80341472  0.37993979    -0.49100
O1250       O  0.87645635  0.77037556  0.34794551    -0.55400
C1251       C  0.90241802  0.84751400  0.36031014     0.84600
O1252       O  0.92688578  0.82193772  0.42526059    -0.57300
O1253       O  0.91423113  0.75596034  0.39050713    -0.60600
In1254     In  0.87439537  0.79283011  0.60738914     1.36900
C1255       C  0.87819612  0.74287598  0.62964658     0.77100
O1256       O  0.92843772  0.83149416  0.61026300    -0.61400
O1257       O  0.89729911  0.82864663  0.64277038    -0.52300
C1258       C  0.88688270  0.80597288  0.55484672     0.69700
O1259       O  0.89427465  0.78709263  0.56785446    -0.47100
C1260       C  0.80899358  0.77208520  0.60953346     0.74400
O1261       O  0.87730009  0.74632332  0.60414976    -0.59000
O1262       O  0.83082161  0.80200731  0.61352324    -0.49100
O1263       O  0.87673139  0.76487041  0.64357369    -0.55400
C1264       C  0.92668674  0.84109912  0.63388569     0.84600
O1265       O  0.87303859  0.81849516  0.56884628    -0.57300
O1266       O  0.82097632  0.75344997  0.60527989    -0.60600
In1267     In  0.69032225  0.60865239  0.04550365     1.36900
C1268       C  0.73649935  0.60277642  0.01839819     0.77100
O1269       O  0.65047466  0.55497609  0.04449163    -0.61400
O1270       O  0.65172534  0.58529623  0.01188802    -0.52300
C1271       C  0.68676233  0.59836079  0.09888729     0.69700
O1272       O  0.70909775  0.59872096  0.08400609    -0.47100
C1273       C  0.71002777  0.67367182  0.04402907     0.74400
O1274       O  0.73222695  0.59790757  0.04373578    -0.59000
O1275       O  0.67972619  0.65150218  0.04250823    -0.49100
O1276       O  0.71706894  0.61089172  0.00701648    -0.55400
C1277       C  0.63935273  0.55633441  0.02129302     0.84600
O1278       O  0.66558170  0.60308739  0.08619876    -0.57300
O1279       O  0.72952668  0.66224357  0.04598764    -0.60600
In1280     In  0.70153377  0.59184156  0.26946172     1.36900
C1281       C  0.74559799  0.64088369  0.29985385     0.77100
O1282       O  0.67053935  0.61637976  0.27122247    -0.61400
O1283       O  0.65603144  0.57406386  0.29611181    -0.52300
C1284       C  0.69485637  0.59022923  0.21586974     0.69700
O1285       O  0.72024707  0.61212931  0.22820265    -0.47100
C1286       C  0.72318569  0.54832337  0.27328430     0.74400
O1287       O  0.74166086  0.64386859  0.27464389    -0.59000
O1288       O  0.69340543  0.54066334  0.27847680    -0.49100
O1289       O  0.72704380  0.61231998  0.30931363    -0.55400
C1290       C  0.65142024  0.59786306  0.28965347     0.84600
O1291       O  0.67220532  0.56931198  0.23111246    -0.57300
O1292       O  0.74137413  0.57815288  0.26661540    -0.60600
In1293     In  0.58280438  0.70364875  0.37644790     1.36900
C1294       C  0.63499059  0.75389897  0.35285463     0.77100
O1295       O  0.59877652  0.66568781  0.37213154    -0.61400
O1296       O  0.56895810  0.66828501  0.34045048    -0.52300
C1297       C  0.58161591  0.69023724  0.42925652     0.69700
O1298       O  0.60790695  0.71009881  0.41682091    -0.47100
C1299       C  0.53857606  0.72487995  0.37698597     0.74400
O1300       O  0.63435163  0.74751941  0.37797753    -0.59000
O1301       O  0.53020709  0.69522000  0.37126126    -0.49100
O1302       O  0.60868237  0.73454798  0.34005519    -0.55400
C1303       C  0.58655295  0.65613819  0.34865958     0.84600
O1304       O  0.55593285  0.67614496  0.41429450    -0.57300
O1305       O  0.56914474  0.74291881  0.38187801    -0.60600
In1306     In  0.59962840  0.69515874  0.59999487     1.36900
C1307       C  0.59719036  0.74348781  0.62678905     0.77100
O1308       O  0.54544972  0.65697861  0.60106416    -0.61400
O1309       O  0.57587762  0.65476171  0.63225701    -0.52300
C1310       C  0.59019895  0.68604674  0.54648982     0.69700
O1311       O  0.58121719  0.70332317  0.55997717    -0.47100
C1312       C  0.66505123  0.71648032  0.60372939     0.74400
O1313       O  0.59601294  0.74160288  0.60104416    -0.59000
O1314       O  0.64322390  0.68661625  0.60788845    -0.49100
O1315       O  0.59939788  0.72055084  0.63851553    -0.55400
C1316       C  0.54666002  0.64355693  0.62307184     0.84600
O1317       O  0.60306729  0.67245345  0.56056672    -0.57300
O1318       O  0.65304480  0.73470980  0.59756473    -0.60600
In1319     In  0.79543649  0.91271296  0.27150964     1.36900
C1320       C  0.74508248  0.86171076  0.29621758     0.77100
O1321       O  0.83382472  0.89695398  0.27488228    -0.61400
O1322       O  0.83312501  0.92779920  0.30605014    -0.52300
C1323       C  0.80558862  0.90958107  0.21851410     0.69700
O1324       O  0.78740614  0.88450999  0.23280937    -0.47100
C1325       C  0.77627381  0.95821574  0.27309854     0.74400
O1326       O  0.74877814  0.86364275  0.27067773    -0.59000
O1327       O  0.80631766  0.96563417  0.27659949    -0.49100
O1328       O  0.76738843  0.88621128  0.30907997    -0.55400
C1329       C  0.84506638  0.91023286  0.29774277     0.84600
O1330       O  0.81906278  0.93664025  0.23147600    -0.57300
O1331       O  0.75672448  0.92791326  0.26892780    -0.60600
In1332     In  0.78654558  0.88205348  0.04915097     1.36900
C1333       C  0.73864875  0.88569409  0.02220568     0.77100
O1334       O  0.82112250  0.93650827  0.04591175    -0.61400
O1335       O  0.82867622  0.90595808  0.01838689    -0.52300
C1336       C  0.80002419  0.89402328  0.10197269     0.69700
O1337       O  0.78007512  0.90043003  0.08932687    -0.47100
C1338       C  0.76402344  0.81677391  0.04587708     0.74400
O1339       O  0.74003008  0.88553855  0.04798291    -0.59000
O1340       O  0.79352970  0.83831820  0.03980906    -0.49100
O1341       O  0.76173436  0.88365276  0.01051363    -0.55400
C1342       C  0.83671902  0.93512258  0.02542944     0.84600
O1343       O  0.81309739  0.88104568  0.08758600    -0.57300
O1344       O  0.74635548  0.82892887  0.05343431    -0.60600
C1345       C  0.81154103  0.93281678  0.17189209    -0.09700
C1346       C  0.80929393  0.90739232  0.18876080     0.06500
C1347       C  0.80822441  0.87937250  0.17664732    -0.03400
C1348       C  0.80691964  0.87615623  0.14817427    -0.07900
C1349       C  0.80655165  0.90044079  0.13144866     0.05600
C1350       C  0.81018191  0.92954244  0.14344465    -0.02900
Br1351     Br  0.81441808  0.96589990  0.12183918    -0.02600
H1352       H  0.81314654  0.95483629  0.18085966     0.09600
H1353       H  0.80494543  0.85402012  0.13911743     0.07600
Br1354     Br  0.80934796  0.84517813  0.19783896    -0.03000
C1355       C  0.71648193  0.83321048  0.33893298    -0.09700
C1356       C  0.71707026  0.83343364  0.31021505     0.06500
C1357       C  0.69071366  0.80698561  0.29589789    -0.03400
C1358       C  0.66470225  0.78143205  0.31037176    -0.07900
C1359       C  0.66390896  0.78140818  0.33905391     0.05600
C1360       C  0.69031511  0.80772239  0.35339574    -0.02900
Br1361     Br  0.69189762  0.81168665  0.39251078    -0.02600
H1362       H  0.73635293  0.85324107  0.35034758     0.09600
H1363       H  0.64478148  0.76142648  0.29897057     0.07600
Br1364     Br  0.68756092  0.80394106  0.25671825    -0.03000
C1365       C  0.55724839  0.67860469  0.50420523    -0.09700
C1366       C  0.58666160  0.68300927  0.51650868     0.06500
C1367       C  0.61321368  0.68722370  0.49984602    -0.03400
C1368       C  0.61055112  0.68844719  0.47144508    -0.07900
C1369       C  0.58145767  0.68483004  0.45905997     0.05600
C1370       C  0.55422867  0.67898989  0.47572330    -0.02900
Br1371     Br  0.51333555  0.67405191  0.46118357    -0.02600
H1372       H  0.53669446  0.67538432  0.51685195     0.09600
H1373       H  0.63167750  0.69296964  0.45897376     0.07600
Br1374     Br  0.65485623  0.69461462  0.51475884    -0.03000
C1375       C  0.77001350  0.53671177  0.26725704    -0.09700
C1376       C  0.73644502  0.52493262  0.27434920     0.06500
C1377       C  0.71677514  0.99127767  0.28161436    -0.03400
C1378       C  0.73057057  0.97046129  0.28120922    -0.07900
C1379       C  0.76396891  0.98221197  0.27402616     0.05600
C1380       C  0.78384066  0.51585877  0.26708577    -0.02900
Br1381     Br  0.82926312  0.53443692  0.25554594    -0.02600
H1382       H  0.78569823  0.56235422  0.26142289     0.09600
H1383       H  0.71490813  0.94467522  0.28670930     0.07600
Br1384     Br  0.67099073  0.97162265  0.29236863    -0.03000
C1385       C  0.61595409  0.62434297  0.28960601    -0.09700
C1386       C  0.62770142  0.60570717  0.30363065     0.06500
C1387       C  0.62118617  0.60007675  0.33185661    -0.03400
C1388       C  0.60491772  0.61436860  0.34555976    -0.07900
C1389       C  0.59513005  0.63479560  0.33193536     0.05600
C1390       C  0.59994393  0.63892842  0.30338718    -0.02900
Br1391     Br  0.58974243  0.66785473  0.28260057    -0.02600
H1392       H  0.62105711  0.62930274  0.26798318     0.09600
H1393       H  0.60188088  0.61124303  0.36752713     0.07600
Br1394     Br  0.63820680  0.57750921  0.35383753    -0.03000
C1395       C  0.71604810  0.75882423  0.04713584    -0.09700
C1396       C  0.75062997  0.78024891  0.04450645     0.06500
C1397       C  0.77119182  0.76604833  0.04108877    -0.03400
C1398       C  0.75719747  0.73156739  0.04092197    -0.07900
C1399       C  0.72267770  0.71011045  0.04365806     0.05600
C1400       C  0.70197913  0.72425719  0.04651047    -0.02900
Br1401     Br  0.65448212  0.69820972  0.05008961    -0.02600
H1402       H  0.69963402  0.76900086  0.04964258     0.09600
H1403       H  0.77370642  0.72146846  0.03857421     0.07600
Br1404     Br  0.81866533  0.79182000  0.03702068    -0.03000
C1405       C  0.71671165  0.59914382  0.14103559    -0.09700
C1406       C  0.68689351  0.59387043  0.12880716     0.06500
C1407       C  0.65885624  0.58493804  0.14550757    -0.03400
C1408       C  0.66159858  0.58273398  0.17385699    -0.07900
C1409       C  0.69193460  0.58963760  0.18595128     0.05600
C1410       C  0.71944830  0.59715258  0.16924822    -0.02900
Br1411     Br  0.76098743  0.60350645  0.18360804    -0.02600
H1412       H  0.73837616  0.60539039  0.12863279     0.09600
H1413       H  0.64017479  0.57646375  0.18657790     0.07600
Br1414     Br  0.61608918  0.57477839  0.13120529    -0.03000
C1415       C  0.75119987  0.72440679  0.61063376    -0.09700
C1416       C  0.77229421  0.75892478  0.60935633     0.06500
C1417       C  0.75760771  0.77909385  0.60651293    -0.03400
C1418       C  0.72284740  0.76456497  0.60486361    -0.07900
C1419       C  0.70175098  0.72999449  0.60598261     0.05600
C1420       C  0.71647999  0.70987579  0.60896187    -0.02900
Br1421     Br  0.69128036  0.66242923  0.60992634    -0.02600
H1422       H  0.76180287  0.70832868  0.61270473     0.09600
H1423       H  0.71227515  0.78063254  0.60250626     0.07600
Br1424     Br  0.78313678  0.82639343  0.60347677    -0.03000
C1425       C  0.50188679  0.78245571  0.37937850    -0.09700
C1426       C  0.96787733  0.76010149  0.38309647     0.06500
C1427       C  0.95738856  0.72589626  0.38494494    -0.03400
C1428       C  0.98065162  0.71503893  0.38224997    -0.07900
C1429       C  0.51467767  0.73750981  0.37855111     0.05600
C1430       C  0.52520313  0.77170887  0.37750000    -0.02900
Br1431     Br  0.57087751  0.80564562  0.37321167    -0.02600
H1432       H  0.51061806  0.80871547  0.37812853     0.09600
H1433       H  0.97211718  0.68882620  0.38366860     0.07600
Br1434     Br  0.91205461  0.69229049  0.39144089    -0.03000
C1435       C  0.88474023  0.88980248  0.35732873    -0.09700
C1436       C  0.89697411  0.87133510  0.34400292     0.06500
C1437       C  0.89757067  0.87146757  0.31517210    -0.03400
C1438       C  0.88304253  0.88697000  0.30053329    -0.07900
C1439       C  0.86786159  0.90273151  0.31389701     0.05600
C1440       C  0.87037920  0.90551260  0.34268816    -0.02900
Br1441     Br  0.85160073  0.92693298  0.36376025    -0.02600
H1442       H  0.88443863  0.89031354  0.37948405     0.09600
H1443       H  0.88175996  0.88480695  0.27843472     0.07600
Br1444     Br  0.91399059  0.84773778  0.29433119    -0.03000
C1445       C  0.79180181  0.69832057  0.30275680    -0.09700
C1446       C  0.77050620  0.66878593  0.31638812     0.06500
C1447       C  0.77401876  0.66700367  0.34497938    -0.03400
C1448       C  0.79974396  0.69388245  0.35878148    -0.07900
C1449       C  0.82190579  0.72280829  0.34475921     0.05600
C1450       C  0.81704548  0.72521548  0.31657880    -0.02900
Br1451     Br  0.84264539  0.76469338  0.29561796    -0.02600
H1452       H  0.78899357  0.70063112  0.28098202     0.09600
H1453       H  0.80275865  0.69189749  0.38055760     0.07600
Br1454     Br  0.74474284  0.62937402  0.36675628    -0.03000
C1455       C  0.86810014  0.81187821  0.50880452    -0.09700
C1456       C  0.89285522  0.81170609  0.52535245     0.06500
C1457       C  0.92158622  0.81429453  0.51312922    -0.03400
C1458       C  0.92440135  0.81545466  0.48471670    -0.07900
C1459       C  0.89852786  0.81308009  0.46811938     0.05600
C1460       C  0.87050849  0.81214242  0.48033831    -0.02900
Br1461     Br  0.83482844  0.81114418  0.45929227    -0.02600
H1462       H  0.84603377  0.81016235  0.51800036     0.09600
H1463       H  0.94616682  0.81646087  0.47555159     0.07600
Br1464     Br  0.95766238  0.81610147  0.53410587    -0.03000
C1465       C  0.60221899  0.99351079  0.96387375    -0.09700
C1466       C  0.58448842  0.96375491  0.97850939     0.06500
C1467       C  0.58000950  0.96568022  0.00688928    -0.03400
C1468       C  0.59611077  0.49650544  0.02017577    -0.09100
C1469       C  0.61631032  0.52592670  0.00577889     0.05600
C1470       C  0.61811340  0.52424436  0.97707674    -0.02900
Br1471     Br  0.64556152  0.56211148  0.95482985    -0.02600
H1472       H  0.60574941  0.99284921  0.94205600     0.09600
H1473       H  0.59410442  0.49728506  0.04218601     0.07600
Br1474     Br  0.55442930  0.92741495  0.02923273    -0.03000
C1475       C  0.68046125  0.88383541  0.96607514    -0.09700
C1476       C  0.65816474  0.88954165  0.98122567     0.06500
C1477       C  0.66381379  0.89607840  0.00941892    -0.03400
C1478       C  0.69036564  0.89501865  0.02212749    -0.07900
C1479       C  0.71198894  0.88796924  0.00723592     0.05600
C1480       C  0.70724099  0.88306035  0.97866969    -0.02900
Br1481     Br  0.73523350  0.87415776  0.95538948    -0.02600
H1482       H  0.67651143  0.87900070  0.94430958     0.09600
H1483       H  0.69410418  0.89983065  0.04389203     0.07600
Br1484     Br  0.63735401  0.90828983  0.03143211    -0.03000
C1485       C  0.60925234  0.80170309  0.62907362    -0.09700
C1486       C  0.59712582  0.77088425  0.64191516     0.06500
C1487       C  0.58608136  0.76723268  0.66916165    -0.03400
C1488       C  0.58822658  0.79432315  0.68313069    -0.07900
C1489       C  0.60085006  0.82539068  0.67055341     0.05600
C1490       C  0.61117866  0.82884813  0.64298871    -0.02900
Br1491     Br  0.62814628  0.86944033  0.62279457    -0.02600
H1492       H  0.61778622  0.80487804  0.60811334     0.09600
H1493       H  0.57958362  0.79083340  0.70408171     0.07600
Br1494     Br  0.56592920  0.72561928  0.68813091    -0.03000
C1495       C  0.98745272  0.88174377  0.63645964    -0.09700
C1496       C  0.95716742  0.86251609  0.65022102     0.06500
C1497       C  0.95798316  0.85978848  0.67894196    -0.03400
C1498       C  0.98860555  0.87395247  0.69276802    -0.07900
C1499       C  0.51899079  0.89104276  0.67876204     0.05600
C1500       C  0.51811913  0.89606465  0.65035199    -0.02900
Br1501     Br  0.55766079  0.91888570  0.62868663    -0.02600
H1502       H  0.98743784  0.88416559  0.61441154     0.09600
H1503       H  0.98865288  0.86988030  0.71460025     0.07600
Br1504     Br  0.91882829  0.83366222  0.70037614    -0.03000
C1505       C  0.57631373  0.90961526  0.81368958    -0.09700
C1506       C  0.58875756  0.89126182  0.80038597     0.06500
C1507       C  0.59603141  0.87007849  0.81612472    -0.03400
C1508       C  0.59128855  0.86813917  0.84433792    -0.07900
C1509       C  0.57914342  0.88662362  0.85757460     0.05600
C1510       C  0.57133975  0.90736600  0.84200904    -0.02900
Br1511     Br  0.55634721  0.93499818  0.85844458    -0.02600
H1512       H  0.57063981  0.92604233  0.80204938     0.09600
H1513       H  0.59744106  0.85215002  0.85613871     0.07600
Br1514     Br  0.61421657  0.84426640  0.80125188    -0.03000
C1515       C  0.75310333  0.52827970  0.71625738    -0.09700
C1516       C  0.77543619  0.51593032  0.71687501     0.06500
C1517       C  0.76216121  0.98142189  0.71917594    -0.03400
C1518       C  0.72761769  0.96030354  0.71918540    -0.07900
C1519       C  0.70520487  0.97248267  0.71762872     0.05600
C1520       C  0.71845037  0.50712140  0.71682808    -0.02900
Br1521     Br  0.69114571  0.52751566  0.71710124    -0.02600
H1522       H  0.76261594  0.55471368  0.71520845     0.09600
H1523       H  0.71826546  0.93391460  0.72057570     0.07600
Br1524     Br  0.78929523  0.96114858  0.72380184    -0.03000
C1525       C  0.98550174  0.59591009  0.67999642    -0.09700
C1526       C  0.95531936  0.58944556  0.66766714     0.06500
C1527       C  0.95503508  0.59491931  0.63929624    -0.03400
C1528       C  0.98493649  0.60976619  0.62472157    -0.07900
C1529       C  0.51568300  0.61940290  0.63760306     0.05600
C1530       C  0.51539651  0.61010783  0.66518884    -0.02900
Br1531     Br  0.55477199  0.61727540  0.68431550    -0.02600
H1532       H  0.98610988  0.59117621  0.70164480     0.09600
H1533       H  0.98425278  0.61584536  0.60340093     0.07600
Br1534     Br  0.91568454  0.58716167  0.61971034    -0.03000
C1535       C  0.89509658  0.72107687  0.66888802    -0.09700
C1536       C  0.88114767  0.71578480  0.64259898     0.06500
C1537       C  0.87011133  0.68488797  0.62986981    -0.03400
C1538       C  0.87152444  0.65957245  0.64417483    -0.07900
C1539       C  0.88432594  0.66445596  0.67095470     0.05600
C1540       C  0.89733358  0.69612277  0.68293009    -0.02900
Br1541     Br  0.91864408  0.70773937  0.71817308    -0.02600
H1542       H  0.90452226  0.74497163  0.67863659     0.09600
H1543       H  0.86198475  0.63571661  0.63437340     0.07600
Br1544     Br  0.85118512  0.67478073  0.59374999    -0.03000
C1545       C  0.49729565  0.71991007  0.94502895    -0.09700
C1546       C  0.96280215  0.70762025  0.94563946     0.06500
C1547       C  0.95124749  0.73067057  0.94729356    -0.03400
C1548       C  0.97396215  0.76478971  0.94750414    -0.07900
C1549       C  0.50844900  0.77710719  0.94614141     0.05600
C1550       C  0.52000944  0.75399205  0.94508550    -0.02900
Br1551     Br  0.56625446  0.76634582  0.94280234    -0.02600
H1552       H  0.50679468  0.70286738  0.94381172     0.09600
H1553       H  0.96445004  0.78182552  0.94851590     0.07600
Br1554     Br  0.90494098  0.71793418  0.94969334    -0.03000
C1555       C  0.88066255  0.49560431  0.96729810    -0.09700
C1556       C  0.89041282  0.52596954  0.98035433     0.06500
C1557       C  0.88704411  0.52611128  0.00901802    -0.03400
C1558       C  0.87232100  0.99625331  0.02354469    -0.07900
C1559       C  0.86011010  0.96562912  0.01021521     0.05600
C1560       C  0.86566221  0.96564522  0.98183865    -0.02900
Br1561     Br  0.84975543  0.92571992  0.96094567    -0.02600
H1562       H  0.88282030  0.49492904  0.94531672     0.09600
H1563       H  0.86826735  0.99689910  0.04525446     0.07600
Br1564     Br  0.89693164  0.56528977  0.02923170    -0.03000
C1565       C  0.80599455  0.58559176  0.99945037    -0.09700
C1566       C  0.81519697  0.60089499  0.97379433     0.06500
C1567       C  0.79750732  0.61557884  0.96255726    -0.03400
C1568       C  0.77136983  0.61491587  0.97719442    -0.07900
C1569       C  0.76267949  0.60035462  0.00320533     0.05600
C1570       C  0.78006286  0.58513809  0.01420323    -0.02900
Br1571     Br  0.76990231  0.56284087  0.04886529    -0.02600
H1572       H  0.81922199  0.57398334  0.00822875     0.09600
H1573       H  0.75851133  0.62692453  0.96849972     0.07600
Br1574     Br  0.80935643  0.63947681  0.92864970    -0.03000
C1575       C  0.91630233  0.62155276  0.83820241    -0.09700
C1576       C  0.89722904  0.59299038  0.85375997     0.06500
C1577       C  0.87664041  0.56278772  0.84027107    -0.03400
C1578       C  0.87561101  0.56164633  0.81168749    -0.07900
C1579       C  0.89373884  0.59047126  0.79612900     0.05600
C1580       C  0.91423665  0.62070881  0.80966611    -0.02900
Br1581     Br  0.94016043  0.66163255  0.79046892    -0.02600
H1582       H  0.93195351  0.64498524  0.84835545     0.09600
H1583       H  0.85955729  0.53829508  0.80158267     0.07600
Br1584     Br  0.84967857  0.52234965  0.85973032    -0.03000
loop_ 
_geom_bond_atom_site_label_1 
_geom_bond_atom_site_label_2 
_geom_bond_distance 
_geom_bond_site_symmetry_2 
_ccdc_geom_bond_type 
In1           O3   2.252       .  S
In1           O4   2.271       .  S
In1          O12   2.251       .  S
In1           O6   2.241       .  S
In1           O8   2.241       .  S
In1           O9   2.278       .  S
In1          O10   2.224       .  S
In1          O13   2.237       .  S
C2            O8   1.261       .  A
C2           O10   1.259       .  A
C2          C378   1.471       .  S
O3           C11   1.259       .  A
O4           C11   1.263       .  A
C5           O12   1.263       .  A
C5            O6   1.260       .  A
C5          C388   1.475       .  S
C7            O9   1.268       .  A
C7           O13   1.257       .  A
C7          C358   1.495       .  S
C11         C368   1.489       .  S
In14         O16   2.254       .  S
In14         O17   2.265       .  S
In14         O25   2.246       .  S
In14         O19   2.229       .  S
In14         O21   2.231       .  S
In14         O22   2.268       .  S
In14         O23   2.239       .  S
In14         O26   2.246       .  S
C15          O21   1.260       .  A
C15          O23   1.261       .  A
C15         C351   1.481       .  S
O16          C24   1.259       .  A
O17          C24   1.262       .  A
C18          O25   1.265       .  A
C18          O19   1.261       .  A
C18         C391   1.477       .  S
C20          O22   1.265       .  A
C20          O26   1.259       .  A
C20         C328   1.493       .  S
C24         C338   1.488       .  S
In27         O29   2.236       .  S
In27         O30   2.276       .  S
In27         O38   2.252       .  S
In27         O32   2.227       .  S
In27         O34   2.232       .  S
In27         O35   2.280       .  S
In27         O36   2.242       .  S
In27         O39   2.230       .  S
C28          O34   1.262       .  A
C28          O36   1.260       .  A
C28         C301   1.483       .  S
O29          C37   1.258       .  A
O30          C37   1.264       .  A
C31          O38   1.265       .  A
C31          O32   1.259       .  A
C31         C318   1.482       .  S
C33          O35   1.265       .  A
C33          O39   1.258       .  A
C33         C331   1.494       .  S
C37         C311   1.489       .  S
In40         O42   2.239       .  S
In40         O43   2.279       .  S
In40         O51   2.261       .  S
In40         O45   2.215       .  S
In40         O47   2.235       .  S
In40         O48   2.289       .  S
In40         O49   2.231       .  S
In40         O52   2.230       .  S
C41          O47   1.262       .  A
C41          O49   1.261       .  A
C41         C288   1.473       .  S
O42          C50   1.259       .  A
O43          C50   1.263       .  A
C44          O51   1.265       .  A
C44          O45   1.260       .  A
C44         C321   1.474       .  S
C46          O48   1.267       .  A
C46          O52   1.253       .  A
C46         C361   1.496       .  S
C50         C278   1.494       .  S
In53         O55   2.238       .  S
In53         O56   2.266       .  S
In53         O64   2.244       .  S
In53         O58   2.218       .  S
In53         O60   2.240       .  S
In53         O61   2.261       .  S
In53         O62   2.219       .  S
In53         O65   2.242       .  S
C54          O60   1.262       .  A
C54          O62   1.259       .  A
C54         C261   1.472       .  S
O55          C63   1.258       .  A
O56          C63   1.262       .  A
C57          O64   1.264       .  A
C57          O58   1.260       .  A
C57         C271   1.470       .  S
C59          O61   1.266       .  A
C59          O65   1.257       .  A
C59         C238   1.491       .  S
C63         C248   1.484       .  S
In66         O68   2.245       .  S
In66         O69   2.268       .  S
In66         O77   2.248       .  S
In66         O71   2.220       .  S
In66         O73   2.241       .  S
In66         O74   2.280       .  S
In66         O75   2.229       .  S
In66         O78   2.231       .  S
C67          O73   1.261       .  A
C67          O75   1.261       .  A
C67         C348   1.476       .  S
O68          C76   1.258       .  A
O69          C76   1.263       .  A
C70          O77   1.264       .  A
C70          O71   1.260       .  A
C70         C268   1.470       .  S
C72          O74   1.266       .  A
C72          O78   1.258       .  A
C72         C228   1.491       .  S
C76         C308   1.489       .  S
In79         O81   2.253       .  S
In79         O82   2.264       .  S
In79         O90   2.253       .  S
In79         O84   2.213       .  S
In79         O86   2.231       .  S
In79         O87   2.283       .  S
In79         O88   2.233       .  S
In79         O91   2.242       .  S
C80          O86   1.259       .  A
C80          O88   1.261       .  A
C80         C381   1.476       .  S
O81          C89   1.258       .  A
O82          C89   1.262       .  A
C83          O90   1.265       .  A
C83          O84   1.261       .  A
C83         C218   1.479       .  S
C85          O87   1.264       .  A
C85          O91   1.257       .  A
C85         C211   1.495       .  S
C89         C281   1.488       .  S
In92         O94   2.235       .  S
In92         O95   2.261       .  S
In92        O103   2.243       .  S
In92         O97   2.218       .  S
In92         O99   2.217       .  S
In92        O100   2.263       .  S
In92        O101   2.230       .  S
In92        O104   2.234       .  S
C93          O99   1.264       .  A
C93         O101   1.261       .  A
C93         C258   1.476       .  S
O94         C102   1.260       .  A
O95         C102   1.267       .  A
C96         O103   1.263       .  A
C96          O97   1.261       .  A
C96         C221   1.469       .  S
C98         O100   1.267       .  A
C98         O104   1.259       .  A
C98         C188   1.492       .  S
C102        C198   1.487       .  S
In105       O107   2.239       .  S
In105       O108   2.276       .  S
In105       O116   2.248       .  S
In105       O110   2.230       .  S
In105       O112   2.242       .  S
In105       O113   2.276       .  S
In105       O114   2.232       .  S
In105       O117   2.228       .  S
C106        O112   1.261       .  A
C106        O114   1.261       .  A
C106        C171   1.481       .  S
O107        C115   1.258       .  A
O108        C115   1.263       .  A
C109        O116   1.264       .  A
C109        O110   1.263       .  A
C109        C181   1.479       .  S
C111        O113   1.267       .  A
C111        O117   1.257       .  A
C111        C241   1.490       .  S
C115        C201   1.488       .  S
In118       O120   2.241       .  S
In118       O121   2.279       .  S
In118       O129   2.247       .  S
In118       O123   2.237       .  S
In118       O125   2.251       .  S
In118       O126   2.271       .  S
In118       O127   2.231       .  S
In118       O130   2.235       .  S
C119        O125   1.262       .  A
C119        O127   1.259       .  A
C119        C298   1.478       .  S
O120        C128   1.259       .  A
O121        C128   1.263       .  A
C122        O129   1.264       .  A
C122        O123   1.262       .  A
C122        C178   1.475       .  S
C124        O126   1.266       .  A
C124        O130   1.259       .  A
C124        C231   1.492       .  S
C128        C341   1.494       .  S
In131       O133   2.238       .  S
In131       O134   2.269       .  S
In131       O142   2.254       .  S
In131       O136   2.229       .  S
In131       O138   2.233       .  S
In131       O139   2.271       .  S
In131       O140   2.240       .  S
In131       O143   2.231       .  S
C132        O138   1.260       .  A
C132        O140   1.261       .  A
C132        C168   1.482       .  S
O133        C141   1.258       .  A
O134        C141   1.262       .  A
C135        O142   1.264       .  A
C135        O136   1.260       .  A
C135        C158   1.477       .  S
C137        O139   1.265       .  A
C137        O143   1.258       .  A
C137        C191   1.485       .  S
C141        C251   1.488       .  S
In144       O146   2.234       .  S
In144       O147   2.275       .  S
In144       O155   2.254       .  S
In144       O149   2.227       .  S
In144       O151   2.237       .  S
In144       O152   2.263       .  S
In144       O153   2.227       .  S
In144       O156   2.249       .  S
C145        O151   1.263       .  A
C145        O153   1.259       .  A
C145        C291   1.479       .  S
O146        C154   1.259       .  A
O147        C154   1.265       .  A
C148        O155   1.263       .  A
C148        O149   1.261       .  A
C148        C161   1.473       .  S
C150        O152   1.266       .  A
C150        O156   1.260       .  A
C150        C208   1.495       .  S
C154        C371   1.491       .  S
C157        C158   1.403       .  A
C157        C162   1.399       .  A
C157        H164   1.084       .  S
C158        C159   1.413       .  A
C159        C160   1.400       .  A
C159       Br166   1.920       .  S
C160        C161   1.401       .  A
C160        H165   1.084       .  S
C161        C162   1.409       .  A
C162       Br163   1.920       .  S
C167        C168   1.406       .  A
C167        C172   1.398       .  A
C167        H174   1.083       .  S
C168        C169   1.414       .  A
C169        C170   1.397       .  A
C169       Br176   1.923       .  S
C170        C171   1.405       .  A
C170        H175   1.083       .  S
C171        C172   1.412       .  A
C172       Br173   1.921       .  S
C177        C178   1.403       .  A
C177        C182   1.401       .  A
C177        H184   1.084       .  S
C178        C179   1.408       .  A
C179        C180   1.398       .  A
C179       Br186   1.920       .  S
C180        C181   1.405       .  A
C180        H185   1.084       .  S
C181        C182   1.413       .  A
C182       Br183   1.921       .  S
C187        C188   1.411       .  A
C187        C192   1.403       .  A
C187        H194   1.084       .  S
C188        C585   1.413   1_545  A
C189        C190   1.400       .  A
C189        C584   1.413       .  A
C189       Br196   1.920       .  S
C190        C191   1.406       .  A
C190        H195   1.085       .  S
C191        C588   1.410       .  A
C192        C587   1.410   1_545  A
C192       Br193   1.921       .  S
C197        C198   1.407       .  A
C197        C202   1.404       .  A
C197        H204   1.085       .  S
C198        C199   1.412       .  A
C199        C200   1.401       .  A
C199       Br206   1.920       .  S
C200        C201   1.405       .  A
C200        H205   1.085       .  S
C201        C202   1.414       .  A
C202       Br203   1.921       .  S
C207        C208   1.410       .  A
C207        C212   1.406       .  A
C207        H214   1.084       .  S
C208        C209   1.413       .  A
C209        C210   1.402       .  A
C209       Br216   1.921       .  S
C210        C211   1.409       .  A
C210        H215   1.084       .  S
C211        C212   1.413       .  A
C212       Br213   1.920       .  S
C217        C218   1.406       .  A
C217        C222   1.393       .  A
C217        H224   1.084       .  S
C218        C219   1.414       .  A
C219        C220   1.401       .  A
C219       Br226   1.919       .  S
C220        C221   1.402       .  A
C220        H225   1.083       .  S
C221        C222   1.407       .  A
C222       Br223   1.922       .  S
C227        C228   1.408       .  A
C227        C232   1.401       .  A
C227        H234   1.084       .  S
C228        C229   1.412       .  A
C229        C230   1.403       .  A
C229       Br236   1.920       .  S
C230        C231   1.410       .  A
C230        H235   1.083       .  S
C231        C232   1.412       .  A
C232       Br233   1.920       .  S
C237        C242   1.399       .  A
C237       C1030   1.403   1_455  A
C237        H244   1.083       .  S
C238        C239   1.419       .  A
C238       C1029   1.403       .  A
C239        C240   1.404       .  A
C239       Br246   1.922       .  S
C240       C1033   1.405       .  A
C240        H245   1.083       .  S
C241        C242   1.416       .  A
C241       C1032   1.405   1_455  A
C242       Br243   1.922       .  S
C247        C248   1.405       .  A
C247        C252   1.401       .  A
C247        H254   1.085       .  S
C248        C249   1.412       .  A
C249        C250   1.400       .  A
C249       Br256   1.920       .  S
C250        C251   1.407       .  A
C250        H255   1.085       .  S
C251        C252   1.414       .  A
C252       Br253   1.920       .  S
C257        C258   1.402       .  A
C257        C262   1.390       .  A
C257        H264   1.085       .  S
C258        C259   1.415       .  A
C259        C260   1.398       .  A
C259       Br266   1.922       .  S
C260        C261   1.403       .  A
C260        H265   1.084       .  S
C261        C262   1.409       .  A
C262       Br263   1.918       .  S
C267        C268   1.402       .  A
C267        C272   1.398       .  A
C267        H274   1.084       .  S
C268        C269   1.410       .  A
C269        C270   1.396       .  A
C269       Br276   1.920       .  S
C270        C271   1.401       .  A
C270        H275   1.084       .  S
C271        C272   1.411       .  A
C272       Br273   1.921       .  S
C277        C278   1.407       .  A
C277        C678   1.400       .  A
C277        H284   1.084       .  S
C278        C279   1.415   1_556  A
C279        C676   1.406       .  A
C279       Br286   1.920       .  S
C280        C281   1.407   1_565  A
C280        C675   1.406       .  A
C280        H285   1.084       .  S
C281        C282   1.413   1_554  A
C282        C673   1.400   1_545  A
C282       Br283   1.921       .  S
C287        C288   1.402       .  A
C287        C292   1.397       .  A
C287        H294   1.085       .  S
C288        C289   1.409   1_556  A
C289        C290   1.396       .  A
C289       Br296   1.921       .  S
C290        C291   1.405       .  A
C290        H295   1.084       .  S
C291        C292   1.416   1_554  A
C292       Br293   1.923       .  S
C297        C298   1.404       .  A
C297        C302   1.400       .  A
C297        H304   1.085       .  S
C298        C299   1.410       .  A
C299        C300   1.396       .  A
C299       Br306   1.922       .  S
C300        C301   1.405       .  A
C300        H305   1.085       .  S
C301        C302   1.416       .  A
C302       Br303   1.922       .  S
C307        C308   1.407       .  A
C307       C1104   1.404       .  A
C307        H314   1.085       .  S
C308        C309   1.413       .  A
C309        C310   1.401       .  A
C309       Br316   1.921       .  S
C310       C1103   1.406       .  A
C310        H315   1.085       .  S
C311        C312   1.413       .  A
C311       C1102   1.406   1_455  A
C312       C1099   1.404   1_455  A
C312       Br313   1.920       .  S
C317        C318   1.407       .  A
C317        C322   1.402       .  A
C317        H324   1.083       .  S
C318        C319   1.415       .  A
C319        C320   1.395       .  A
C319       Br326   1.922       .  S
C320        C321   1.401       .  A
C320        H325   1.084       .  S
C321        C322   1.408       .  A
C322       Br323   1.918       .  S
C327        C328   1.410       .  A
C327        C332   1.405       .  A
C327        H334   1.083       .  S
C328        C725   1.412   1_545  A
C329        C330   1.400       .  A
C329        C724   1.412       .  A
C329       Br336   1.921       .  S
C330        C331   1.409       .  A
C330        H335   1.084       .  S
C331        C728   1.413       .  A
C332        C727   1.413   1_545  A
C332       Br333   1.920       .  S
C337        C338   1.406       .  A
C337       C1134   1.406       .  A
C337        H344   1.085       .  S
C338        C339   1.412       .  A
C339        C340   1.400       .  A
C339       Br346   1.921       .  S
C340       C1133   1.407       .  A
C340        H345   1.085       .  S
C341        C342   1.415       .  A
C341       C1132   1.407   1_455  A
C342       C1129   1.406   1_455  A
C342       Br343   1.919       .  S
C347        C348   1.402       .  A
C347        C352   1.396       .  A
C347        H354   1.084       .  S
C348        C349   1.411       .  A
C349        C350   1.399       .  A
C349       Br356   1.921       .  S
C350        C351   1.407       .  A
C350        H355   1.083       .  S
C351        C352   1.414       .  A
C352       Br353   1.922       .  S
C357        C362   1.403   1_655  A
C357       C1150   1.403       .  A
C357        H364   1.083   1_655  S
C358        C359   1.419       .  A
C358       C1149   1.403       .  A
C359        C360   1.404       .  A
C359       Br366   1.922       .  S
C360       C1153   1.404       .  A
C360        H365   1.083       .  S
C361        C362   1.421       .  A
C361       C1152   1.404   1_455  A
C362       Br363   1.923       .  S
C367        C368   1.407   1_565  A
C367        C768   1.405       .  A
C367        H374   1.083       .  S
C368        C369   1.413   1_556  A
C369        C766   1.401   1_545  A
C369       Br376   1.921       .  S
C370        C371   1.407       .  A
C370        C765   1.401       .  A
C370        H375   1.083       .  S
C371        C372   1.414   1_554  A
C372        C763   1.405       .  A
C372       Br373   1.920       .  S
C377        C378   1.403       .  A
C377        C382   1.395   1_556  A
C377        H384   1.084   1_556  S
C378        C379   1.410       .  A
C379        C380   1.396       .  A
C379       Br386   1.921       .  S
C380        C381   1.405   1_556  A
C380        H385   1.083       .  S
C381        C382   1.413       .  A
C382       Br383   1.922       .  S
C387        C388   1.402       .  A
C387        C392   1.399       .  A
C387        H394   1.085       .  S
C388        C389   1.410       .  A
C389        C390   1.400       .  A
C389       Br396   1.919       .  S
C390        C391   1.404       .  A
C390        H395   1.084       .  S
C391        C392   1.412       .  A
C392       Br393   1.921       .  S
In397       O399   2.252       .  S
In397       O400   2.271       .  S
In397       O408   2.251       .  S
In397       O402   2.241       .  S
In397       O404   2.241       .  S
In397       O405   2.278       .  S
In397       O406   2.224       .  S
In397       O409   2.237       .  S
C398        O404   1.261       .  A
C398        O406   1.259       .  A
C398        C774   1.471       .  S
O399        C407   1.259       .  A
O400        C407   1.263       .  A
C401        O408   1.263       .  A
C401        O402   1.260       .  A
C401        C784   1.475       .  S
C403        O405   1.268       .  A
C403        O409   1.257       .  A
C403        C754   1.495       .  S
C407        C764   1.489       .  S
In410       O412   2.254       .  S
In410       O413   2.265       .  S
In410       O421   2.246       .  S
In410       O415   2.229       .  S
In410       O417   2.231       .  S
In410       O418   2.268       .  S
In410       O419   2.239       .  S
In410       O422   2.246       .  S
C411        O417   1.260       .  A
C411        O419   1.261       .  A
C411        C747   1.481       .  S
O412        C420   1.259       .  A
O413        C420   1.262       .  A
C414        O421   1.265       .  A
C414        O415   1.261       .  A
C414        C787   1.477       .  S
C416        O418   1.265       .  A
C416        O422   1.259       .  A
C416        C724   1.493       .  S
C420        C734   1.488       .  S
In423       O425   2.236       .  S
In423       O426   2.276       .  S
In423       O434   2.252       .  S
In423       O428   2.227       .  S
In423       O430   2.232       .  S
In423       O431   2.280       .  S
In423       O432   2.242       .  S
In423       O435   2.230       .  S
C424        O430   1.262       .  A
C424        O432   1.260       .  A
C424        C697   1.483       .  S
O425        C433   1.258       .  A
O426        C433   1.264       .  A
C427        O434   1.265       .  A
C427        O428   1.259       .  A
C427        C714   1.482       .  S
C429        O431   1.265       .  A
C429        O435   1.258       .  A
C429        C727   1.494       .  S
C433        C707   1.489       .  S
In436       O438   2.239       .  S
In436       O439   2.279       .  S
In436       O447   2.261       .  S
In436       O441   2.215       .  S
In436       O443   2.235       .  S
In436       O444   2.289       .  S
In436       O445   2.231       .  S
In436       O448   2.230       .  S
C437        O443   1.262       .  A
C437        O445   1.261       .  A
C437        C684   1.473       .  S
O438        C446   1.259       .  A
O439        C446   1.263       .  A
C440        O447   1.265       .  A
C440        O441   1.260       .  A
C440        C717   1.474       .  S
C442        O444   1.267       .  A
C442        O448   1.253       .  A
C442        C757   1.496       .  S
C446        C674   1.494       .  S
In449       O451   2.238       .  S
In449       O452   2.266       .  S
In449       O460   2.244       .  S
In449       O454   2.218       .  S
In449       O456   2.240       .  S
In449       O457   2.261       .  S
In449       O458   2.219       .  S
In449       O461   2.242       .  S
C450        O456   1.261       .  A
C450        O458   1.259       .  A
C450        C657   1.472       .  S
O451        C459   1.258       .  A
O452        C459   1.262       .  A
C453        O460   1.264       .  A
C453        O454   1.260       .  A
C453        C667   1.470       .  S
C455        O457   1.266       .  A
C455        O461   1.257       .  A
C455        C634   1.491       .  S
C459        C644   1.484       .  S
In462       O464   2.245       .  S
In462       O465   2.268       .  S
In462       O473   2.248       .  S
In462       O467   2.220       .  S
In462       O469   2.241       .  S
In462       O470   2.280       .  S
In462       O471   2.229       .  S
In462       O474   2.231       .  S
C463        O469   1.261       .  A
C463        O471   1.261       .  A
C463        C744   1.476       .  S
O464        C472   1.258       .  A
O465        C472   1.263       .  A
C466        O473   1.264       .  A
C466        O467   1.260       .  A
C466        C664   1.470       .  S
C468        O470   1.266       .  A
C468        O474   1.258       .  A
C468        C624   1.491       .  S
C472        C704   1.489       .  S
In475       O477   2.253       .  S
In475       O478   2.264       .  S
In475       O486   2.253       .  S
In475       O480   2.213       .  S
In475       O482   2.231       .  S
In475       O483   2.283       .  S
In475       O484   2.233       .  S
In475       O487   2.242       .  S
C476        O482   1.259       .  A
C476        O484   1.261       .  A
C476        C777   1.476       .  S
O477        C485   1.258       .  A
O478        C485   1.262       .  A
C479        O486   1.265       .  A
C479        O480   1.261       .  A
C479        C614   1.479       .  S
C481        O483   1.264       .  A
C481        O487   1.257       .  A
C481        C607   1.495       .  S
C485        C677   1.488       .  S
In488       O490   2.235       .  S
In488       O491   2.261       .  S
In488       O499   2.243       .  S
In488       O493   2.218       .  S
In488       O495   2.217       .  S
In488       O496   2.263       .  S
In488       O497   2.230       .  S
In488       O500   2.234       .  S
C489        O495   1.264       .  A
C489        O497   1.261       .  A
C489        C654   1.476       .  S
O490        C498   1.260       .  A
O491        C498   1.267       .  A
C492        O499   1.263       .  A
C492        O493   1.261       .  A
C492        C617   1.469       .  S
C494        O496   1.267       .  A
C494        O500   1.259       .  A
C494        C584   1.492       .  S
C498        C594   1.487       .  S
In501       O503   2.239       .  S
In501       O504   2.276       .  S
In501       O512   2.248       .  S
In501       O506   2.230       .  S
In501       O508   2.242       .  S
In501       O509   2.276       .  S
In501       O510   2.232       .  S
In501       O513   2.228       .  S
C502        O508   1.261       .  A
C502        O510   1.261       .  A
C502        C567   1.481       .  S
O503        C511   1.258       .  A
O504        C511   1.263       .  A
C505        O512   1.264       .  A
C505        O506   1.263       .  A
C505        C577   1.479       .  S
C507        O509   1.267       .  A
C507        O513   1.257       .  A
C507        C637   1.490       .  S
C511        C597   1.488       .  S
In514       O516   2.241       .  S
In514       O517   2.279       .  S
In514       O525   2.247       .  S
In514       O519   2.237       .  S
In514       O521   2.251       .  S
In514       O522   2.271       .  S
In514       O523   2.231       .  S
In514       O526   2.235       .  S
C515        O521   1.262       .  A
C515        O523   1.259       .  A
C515        C694   1.478       .  S
O516        C524   1.259       .  A
O517        C524   1.263       .  A
C518        O525   1.264       .  A
C518        O519   1.262       .  A
C518        C574   1.475       .  S
C520        O522   1.266       .  A
C520        O526   1.259       .  A
C520        C627   1.492       .  S
C524        C737   1.494       .  S
In527       O529   2.238       .  S
In527       O530   2.269       .  S
In527       O538   2.254       .  S
In527       O532   2.229       .  S
In527       O534   2.233       .  S
In527       O535   2.271       .  S
In527       O536   2.240       .  S
In527       O539   2.231       .  S
C528        O534   1.260       .  A
C528        O536   1.261       .  A
C528        C564   1.482       .  S
O529        C537   1.258       .  A
O530        C537   1.262       .  A
C531        O538   1.264       .  A
C531        O532   1.260       .  A
C531        C554   1.477       .  S
C533        O535   1.265       .  A
C533        O539   1.258       .  A
C533        C587   1.485       .  S
C537        C647   1.488       .  S
In540       O542   2.234       .  S
In540       O543   2.275       .  S
In540       O551   2.254       .  S
In540       O545   2.227       .  S
In540       O547   2.237       .  S
In540       O548   2.263       .  S
In540       O549   2.227       .  S
In540       O552   2.249       .  S
C541        O547   1.263       .  A
C541        O549   1.259       .  A
C541        C687   1.479       .  S
O542        C550   1.259       .  A
O543        C550   1.265       .  A
C544        O551   1.263       .  A
C544        O545   1.261       .  A
C544        C557   1.473       .  S
C546        O548   1.266       .  A
C546        O552   1.260       .  A
C546        C604   1.495       .  S
C550        C767   1.491       .  S
C553        C554   1.403       .  A
C553        C558   1.399       .  A
C553        H560   1.084       .  S
C554        C555   1.413       .  A
C555        C556   1.400       .  A
C555       Br562   1.920       .  S
C556        C557   1.401       .  A
C556        H561   1.084       .  S
C557        C558   1.409       .  A
C558       Br559   1.920       .  S
C563        C564   1.406       .  A
C563        C568   1.398       .  A
C563        H570   1.083       .  S
C564        C565   1.414       .  A
C565        C566   1.397       .  A
C565       Br572   1.923       .  S
C566        C567   1.405       .  A
C566        H571   1.083       .  S
C567        C568   1.412       .  A
C568       Br569   1.921       .  S
C573        C574   1.403       .  A
C573        C578   1.401       .  A
C573        H580   1.083       .  S
C574        C575   1.408       .  A
C575        C576   1.398       .  A
C575       Br582   1.920       .  S
C576        C577   1.405       .  A
C576        H581   1.084       .  S
C577        C578   1.413       .  A
C578       Br579   1.921       .  S
C583        C584   1.411       .  A
C583        C588   1.403       .  A
C583        H590   1.084       .  S
C585        C586   1.400       .  A
C585       Br592   1.920       .  S
C586        C587   1.406       .  A
C586        H591   1.085       .  S
C588       Br589   1.921       .  S
C593        C594   1.407       .  A
C593        C598   1.404       .  A
C593        H600   1.085       .  S
C594        C595   1.412       .  A
C595        C596   1.401       .  A
C595       Br602   1.920       .  S
C596        C597   1.405       .  A
C596        H601   1.085       .  S
C597        C598   1.414       .  A
C598       Br599   1.921       .  S
C603        C604   1.410       .  A
C603        C608   1.406       .  A
C603        H610   1.084       .  S
C604        C605   1.413       .  A
C605        C606   1.402       .  A
C605       Br612   1.921       .  S
C606        C607   1.409       .  A
C606        H611   1.084       .  S
C607        C608   1.413       .  A
C608       Br609   1.920       .  S
C613        C614   1.406       .  A
C613        C618   1.393       .  A
C613        H620   1.084       .  S
C614        C615   1.414       .  A
C615        C616   1.401       .  A
C615       Br622   1.919       .  S
C616        C617   1.402       .  A
C616        H621   1.083       .  S
C617        C618   1.407       .  A
C618       Br619   1.922       .  S
C623        C624   1.408       .  A
C623        C628   1.401       .  A
C623        H630   1.084       .  S
C624        C625   1.412       .  A
C625        C626   1.403       .  A
C625       Br632   1.920       .  S
C626        C627   1.410       .  A
C626        H631   1.084       .  S
C627        C628   1.412       .  A
C628       Br629   1.920       .  S
C633       C1426   1.403   1_455  A
C633        C638   1.399       .  A
C633        H640   1.083       .  S
C634       C1425   1.403       .  A
C634        C635   1.419       .  A
C635        C636   1.404       .  A
C635       Br642   1.922       .  S
C636       C1429   1.405       .  A
C636        H641   1.083       .  S
C637       C1428   1.405   1_455  A
C637        C638   1.416       .  A
C638       Br639   1.922       .  S
C643        C644   1.405       .  A
C643        C648   1.401       .  A
C643        H650   1.085       .  S
C644        C645   1.412       .  A
C645        C646   1.400       .  A
C645       Br652   1.920       .  S
C646        C647   1.407       .  A
C646        H651   1.085       .  S
C647        C648   1.414       .  A
C648       Br649   1.920       .  S
C653        C654   1.402       .  A
C653        C658   1.390       .  A
C653        H660   1.085       .  S
C654        C655   1.415       .  A
C655        C656   1.398       .  A
C655       Br662   1.922       .  S
C656        C657   1.403       .  A
C656        H661   1.084       .  S
C657        C658   1.409       .  A
C658       Br659   1.918       .  S
C663        C664   1.402       .  A
C663        C668   1.398       .  A
C663        H670   1.084       .  S
C664        C665   1.410       .  A
C665        C666   1.396       .  A
C665       Br672   1.920       .  S
C666        C667   1.401       .  A
C666        H671   1.084       .  S
C667        C668   1.411       .  A
C668       Br669   1.921       .  S
C673        C674   1.407       .  A
C673        H680   1.084       .  S
C674        C675   1.415   1_556  A
C675       Br682   1.920       .  S
C676        C677   1.407       .  A
C676        H681   1.084       .  S
C677        C678   1.413   1_554  A
C678       Br679   1.921       .  S
C683        C684   1.402       .  A
C683        C688   1.397       .  A
C683        H690   1.085       .  S
C684        C685   1.409   1_556  A
C685        C686   1.396       .  A
C685       Br692   1.921       .  S
C686        C687   1.405       .  A
C686        H691   1.084       .  S
C687        C688   1.416   1_554  A
C688       Br689   1.923       .  S
C693        C694   1.404       .  A
C693        C698   1.400       .  A
C693        H700   1.085       .  S
C694        C695   1.410       .  A
C695        C696   1.396       .  A
C695       Br702   1.922       .  S
C696        C697   1.405       .  A
C696        H701   1.085       .  S
C697        C698   1.416       .  A
C698       Br699   1.922       .  S
C703        C704   1.407       .  A
C703       C1500   1.404       .  A
C703        H710   1.085       .  S
C704        C705   1.413       .  A
C705        C706   1.401       .  A
C705       Br712   1.921       .  S
C706       C1499   1.406       .  A
C706        H711   1.085       .  S
C707       C1498   1.406   1_455  A
C707        C708   1.413       .  A
C708       C1495   1.404   1_455  A
C708       Br709   1.920       .  S
C713        C714   1.407       .  A
C713        C718   1.402       .  A
C713        H720   1.084       .  S
C714        C715   1.415       .  A
C715        C716   1.395       .  A
C715       Br722   1.922       .  S
C716        C717   1.401       .  A
C716        H721   1.084       .  S
C717        C718   1.408       .  A
C718       Br719   1.918       .  S
C723        C724   1.410       .  A
C723        C728   1.405       .  A
C723        H730   1.083       .  S
C725        C726   1.400       .  A
C725       Br732   1.921       .  S
C726        C727   1.409       .  A
C726        H731   1.084       .  S
C728       Br729   1.920       .  S
C733        C734   1.406       .  A
C733       C1530   1.406       .  A
C733        H740   1.085       .  S
C734        C735   1.412       .  A
C735        C736   1.400       .  A
C735       Br742   1.921       .  S
C736       C1529   1.407       .  A
C736        H741   1.085       .  S
C737       C1528   1.407   1_455  A
C737        C738   1.415       .  A
C738       C1525   1.406   1_455  A
C738       Br739   1.919       .  S
C743        C744   1.402       .  A
C743        C748   1.396       .  A
C743        H750   1.084       .  S
C744        C745   1.411       .  A
C745        C746   1.399       .  A
C745       Br752   1.921       .  S
C746        C747   1.407       .  A
C746        H751   1.083       .  S
C747        C748   1.414       .  A
C748       Br749   1.922       .  S
C753       C1546   1.403       .  A
C753        C758   1.403   1_655  A
C753        H760   1.083   1_655  S
C754       C1545   1.403       .  A
C754        C755   1.419       .  A
C755        C756   1.404       .  A
C755       Br762   1.922       .  S
C756       C1549   1.404       .  A
C756        H761   1.083       .  S
C757       C1548   1.404   1_455  A
C757        C758   1.421       .  A
C758       Br759   1.923       .  S
C763        C764   1.407       .  A
C763        H770   1.083       .  S
C764        C765   1.413   1_556  A
C765       Br772   1.921       .  S
C766        C767   1.407       .  A
C766        H771   1.083       .  S
C767        C768   1.414   1_554  A
C768       Br769   1.920       .  S
C773        C774   1.403       .  A
C773        C778   1.395   1_556  A
C773        H780   1.084   1_556  S
C774        C775   1.410       .  A
C775        C776   1.396       .  A
C775       Br782   1.921       .  S
C776        C777   1.405   1_556  A
C776        H781   1.083       .  S
C777        C778   1.413       .  A
C778       Br779   1.922       .  S
C783        C784   1.402       .  A
C783        C788   1.399       .  A
C783        H790   1.084       .  S
C784        C785   1.410       .  A
C785        C786   1.400       .  A
C785       Br792   1.919       .  S
C786        C787   1.404       .  A
C786        H791   1.084       .  S
C787        C788   1.412       .  A
C788       Br789   1.921       .  S
In793       O795   2.252       .  S
In793       O796   2.271       .  S
In793       O804   2.251       .  S
In793       O798   2.241       .  S
In793       O800   2.241       .  S
In793       O801   2.278       .  S
In793       O802   2.224       .  S
In793       O805   2.237       .  S
C794        O800   1.261       .  A
C794        O802   1.259       .  A
C794       C1170   1.471       .  S
O795        C803   1.259       .  A
O796        C803   1.263       .  A
C797        O804   1.263       .  A
C797        O798   1.260       .  A
C797       C1180   1.475       .  S
C799        O801   1.268       .  A
C799        O805   1.257       .  A
C799       C1150   1.495       .  S
C803       C1160   1.489       .  S
In806       O808   2.254       .  S
In806       O809   2.265       .  S
In806       O817   2.246       .  S
In806       O811   2.229       .  S
In806       O813   2.231       .  S
In806       O814   2.268       .  S
In806       O815   2.239       .  S
In806       O818   2.246       .  S
C807        O813   1.260       .  A
C807        O815   1.261       .  A
C807       C1143   1.481       .  S
O808        C816   1.259       .  A
O809        C816   1.262       .  A
C810        O817   1.265       .  A
C810        O811   1.261       .  A
C810       C1183   1.477       .  S
C812        O814   1.265       .  A
C812        O818   1.259       .  A
C812       C1120   1.493       .  S
C816       C1130   1.488       .  S
In819       O821   2.236       .  S
In819       O822   2.276       .  S
In819       O830   2.252       .  S
In819       O824   2.227       .  S
In819       O826   2.232       .  S
In819       O827   2.280       .  S
In819       O828   2.242       .  S
In819       O831   2.230       .  S
C820        O826   1.262       .  A
C820        O828   1.260       .  A
C820       C1093   1.483       .  S
O821        C829   1.258       .  A
O822        C829   1.264       .  A
C823        O830   1.265       .  A
C823        O824   1.259       .  A
C823       C1110   1.482       .  S
C825        O827   1.265       .  A
C825        O831   1.258       .  A
C825       C1123   1.494       .  S
C829       C1103   1.489       .  S
In832       O834   2.239       .  S
In832       O835   2.279       .  S
In832       O843   2.261       .  S
In832       O837   2.215       .  S
In832       O839   2.235       .  S
In832       O840   2.289       .  S
In832       O841   2.231       .  S
In832       O844   2.230       .  S
C833        O839   1.262       .  A
C833        O841   1.261       .  A
C833       C1080   1.473       .  S
O834        C842   1.259       .  A
O835        C842   1.263       .  A
C836        O843   1.265       .  A
C836        O837   1.260       .  A
C836       C1113   1.474       .  S
C838        O840   1.267       .  A
C838        O844   1.253       .  A
C838       C1153   1.496       .  S
C842       C1070   1.494       .  S
In845       O847   2.238       .  S
In845       O848   2.266       .  S
In845       O856   2.244       .  S
In845       O850   2.218       .  S
In845       O852   2.240       .  S
In845       O853   2.261       .  S
In845       O854   2.219       .  S
In845       O857   2.242       .  S
C846        O852   1.262       .  A
C846        O854   1.259       .  A
C846       C1053   1.472       .  S
O847        C855   1.258       .  A
O848        C855   1.262       .  A
C849        O856   1.264       .  A
C849        O850   1.260       .  A
C849       C1063   1.470       .  S
C851        O853   1.266       .  A
C851        O857   1.257       .  A
C851       C1030   1.491       .  S
C855       C1040   1.484       .  S
In858       O860   2.245       .  S
In858       O861   2.268       .  S
In858       O869   2.248       .  S
In858       O863   2.220       .  S
In858       O865   2.241       .  S
In858       O866   2.280       .  S
In858       O867   2.229       .  S
In858       O870   2.231       .  S
C859        O865   1.261       .  A
C859        O867   1.261       .  A
C859       C1140   1.476       .  S
O860        C868   1.258       .  A
O861        C868   1.263       .  A
C862        O869   1.264       .  A
C862        O863   1.260       .  A
C862       C1060   1.470       .  S
C864        O866   1.266       .  A
C864        O870   1.258       .  A
C864       C1020   1.491       .  S
C868       C1100   1.489       .  S
In871       O873   2.253       .  S
In871       O874   2.264       .  S
In871       O882   2.253       .  S
In871       O876   2.213       .  S
In871       O878   2.231       .  S
In871       O879   2.283       .  S
In871       O880   2.233       .  S
In871       O883   2.242       .  S
C872        O878   1.259       .  A
C872        O880   1.261       .  A
C872       C1173   1.476       .  S
O873        C881   1.258       .  A
O874        C881   1.262       .  A
C875        O882   1.265       .  A
C875        O876   1.261       .  A
C875       C1010   1.479       .  S
C877        O879   1.264       .  A
C877        O883   1.257       .  A
C877       C1003   1.495       .  S
C881       C1073   1.488       .  S
In884       O886   2.235       .  S
In884       O887   2.261       .  S
In884       O895   2.243       .  S
In884       O889   2.218       .  S
In884       O891   2.217       .  S
In884       O892   2.263       .  S
In884       O893   2.230       .  S
In884       O896   2.234       .  S
C885        O891   1.264       .  A
C885        O893   1.261       .  A
C885       C1050   1.476       .  S
O886        C894   1.260       .  A
O887        C894   1.267       .  A
C888        O895   1.263       .  A
C888        O889   1.261       .  A
C888       C1013   1.469       .  S
C890        O892   1.267       .  A
C890        O896   1.259       .  A
C890        C980   1.492       .  S
C894        C990   1.487       .  S
In897       O899   2.239       .  S
In897       O900   2.276       .  S
In897       O908   2.248       .  S
In897       O902   2.230       .  S
In897       O904   2.242       .  S
In897       O905   2.276       .  S
In897       O906   2.232       .  S
In897       O909   2.228       .  S
C898        O904   1.261       .  A
C898        O906   1.261       .  A
C898        C963   1.481       .  S
O899        C907   1.258       .  A
O900        C907   1.263       .  A
C901        O908   1.264       .  A
C901        O902   1.263       .  A
C901        C973   1.479       .  S
C903        O905   1.267       .  A
C903        O909   1.257       .  A
C903       C1033   1.490       .  S
C907        C993   1.488       .  S
In910       O912   2.241       .  S
In910       O913   2.279       .  S
In910       O921   2.247       .  S
In910       O915   2.237       .  S
In910       O917   2.251       .  S
In910       O918   2.271       .  S
In910       O919   2.231       .  S
In910       O922   2.235       .  S
C911        O917   1.262       .  A
C911        O919   1.259       .  A
C911       C1090   1.478       .  S
O912        C920   1.259       .  A
O913        C920   1.263       .  A
C914        O921   1.264       .  A
C914        O915   1.262       .  A
C914        C970   1.475       .  S
C916        O918   1.266       .  A
C916        O922   1.259       .  A
C916       C1023   1.492       .  S
C920       C1133   1.494       .  S
In923       O925   2.238       .  S
In923       O926   2.269       .  S
In923       O934   2.254       .  S
In923       O928   2.229       .  S
In923       O930   2.233       .  S
In923       O931   2.271       .  S
In923       O932   2.240       .  S
In923       O935   2.231       .  S
C924        O930   1.260       .  A
C924        O932   1.261       .  A
C924        C960   1.482       .  S
O925        C933   1.258       .  A
O926        C933   1.262       .  A
C927        O934   1.264       .  A
C927        O928   1.260       .  A
C927        C950   1.477       .  S
C929        O931   1.265       .  A
C929        O935   1.258       .  A
C929        C983   1.485       .  S
C933       C1043   1.488       .  S
In936       O938   2.234       .  S
In936       O939   2.275       .  S
In936       O947   2.254       .  S
In936       O941   2.227       .  S
In936       O943   2.237       .  S
In936       O944   2.263       .  S
In936       O945   2.227       .  S
In936       O948   2.249       .  S
C937        O943   1.263       .  A
C937        O945   1.259       .  A
C937       C1083   1.479       .  S
O938        C946   1.259       .  A
O939        C946   1.265       .  A
C940        O947   1.263       .  A
C940        O941   1.261       .  A
C940        C953   1.473       .  S
C942        O944   1.266       .  A
C942        O948   1.260       .  A
C942       C1000   1.495       .  S
C946       C1163   1.491       .  S
C949        C950   1.403       .  A
C949        C954   1.399       .  A
C949        H956   1.084       .  S
C950        C951   1.413       .  A
C951        C952   1.400       .  A
C951       Br958   1.920       .  S
C952        C953   1.401       .  A
C952        H957   1.084       .  S
C953        C954   1.409       .  A
C954       Br955   1.920       .  S
C959        C960   1.406       .  A
C959        C964   1.398       .  A
C959        H966   1.083       .  S
C960        C961   1.414       .  A
C961        C962   1.397       .  A
C961       Br968   1.923       .  S
C962        C963   1.405       .  A
C962        H967   1.083       .  S
C963        C964   1.412       .  A
C964       Br965   1.921       .  S
C969        C970   1.403       .  A
C969        C974   1.401       .  A
C969        H976   1.084       .  S
C970        C971   1.408       .  A
C971        C972   1.398       .  A
C971       Br978   1.920       .  S
C972        C973   1.405       .  A
C972        H977   1.083       .  S
C973        C974   1.413       .  A
C974       Br975   1.921       .  S
C979        C980   1.411       .  A
C979        C984   1.403       .  A
C979        H986   1.084       .  S
C980       C1377   1.413   1_545  A
C981       C1376   1.413       .  A
C981        C982   1.400       .  A
C981       Br988   1.920       .  S
C982        C983   1.406       .  A
C982        H987   1.085       .  S
C983       C1380   1.410       .  A
C984       C1379   1.410   1_545  A
C984       Br985   1.921       .  S
C989        C990   1.407       .  A
C989        C994   1.404       .  A
C989        H996   1.085       .  S
C990        C991   1.412       .  A
C991        C992   1.401       .  A
C991       Br998   1.920       .  S
C992        C993   1.405       .  A
C992        H997   1.085       .  S
C993        C994   1.414       .  A
C994       Br995   1.921       .  S
C999       C1000   1.410       .  A
C999       C1004   1.406       .  A
C999       H1006   1.084       .  S
C1000      C1001   1.413       .  A
C1001      C1002   1.402       .  A
C1001     Br1008   1.921       .  S
C1002      C1003   1.409       .  A
C1002      H1007   1.084       .  S
C1003      C1004   1.413       .  A
C1004     Br1005   1.920       .  S
C1009      C1010   1.406       .  A
C1009      C1014   1.393       .  A
C1009      H1016   1.083       .  S
C1010      C1011   1.414       .  A
C1011      C1012   1.401       .  A
C1011     Br1018   1.919       .  S
C1012      C1013   1.402       .  A
C1012      H1017   1.083       .  S
C1013      C1014   1.407       .  A
C1014     Br1015   1.922       .  S
C1019      C1020   1.408       .  A
C1019      C1024   1.401       .  A
C1019      H1026   1.084       .  S
C1020      C1021   1.412       .  A
C1021      C1022   1.403       .  A
C1021     Br1028   1.920       .  S
C1022      C1023   1.410       .  A
C1022      H1027   1.084       .  S
C1023      C1024   1.412       .  A
C1024     Br1025   1.920       .  S
C1029      C1034   1.399       .  A
C1029      H1036   1.083       .  S
C1030      C1031   1.419       .  A
C1031      C1032   1.404       .  A
C1031     Br1038   1.922       .  S
C1032      H1037   1.083       .  S
C1033      C1034   1.416       .  A
C1034     Br1035   1.922       .  S
C1039      C1040   1.405       .  A
C1039      C1044   1.401       .  A
C1039      H1046   1.085       .  S
C1040      C1041   1.412       .  A
C1041      C1042   1.400       .  A
C1041     Br1048   1.920       .  S
C1042      C1043   1.406       .  A
C1042      H1047   1.085       .  S
C1043      C1044   1.414       .  A
C1044     Br1045   1.920       .  S
C1049      C1050   1.402       .  A
C1049      C1054   1.390       .  A
C1049      H1056   1.085       .  S
C1050      C1051   1.415       .  A
C1051      C1052   1.398       .  A
C1051     Br1058   1.922       .  S
C1052      C1053   1.403       .  A
C1052      H1057   1.084       .  S
C1053      C1054   1.409       .  A
C1054     Br1055   1.918       .  S
C1059      C1060   1.402       .  A
C1059      C1064   1.398       .  A
C1059      H1066   1.084       .  S
C1060      C1061   1.410       .  A
C1061      C1062   1.396       .  A
C1061     Br1068   1.920       .  S
C1062      C1063   1.401       .  A
C1062      H1067   1.084       .  S
C1063      C1064   1.411       .  A
C1064     Br1065   1.921       .  S
C1069      C1070   1.407       .  A
C1069      C1470   1.400       .  A
C1069      H1076   1.084       .  S
C1070      C1071   1.415   1_556  A
C1071      C1468   1.406       .  A
C1071     Br1078   1.920       .  S
C1072      C1467   1.406       .  A
C1072      C1073   1.407   1_565  A
C1072      H1077   1.084       .  S
C1073      C1074   1.413   1_554  A
C1074      C1465   1.400   1_545  A
C1074     Br1075   1.922       .  S
C1079      C1080   1.402       .  A
C1079      C1084   1.397       .  A
C1079      H1086   1.085       .  S
C1080      C1081   1.409   1_556  A
C1081      C1082   1.396       .  A
C1081     Br1088   1.921       .  S
C1082      C1083   1.405       .  A
C1082      H1087   1.084       .  S
C1083      C1084   1.416   1_554  A
C1084     Br1085   1.923       .  S
C1089      C1090   1.404       .  A
C1089      C1094   1.400       .  A
C1089      H1096   1.085       .  S
C1090      C1091   1.410       .  A
C1091      C1092   1.396       .  A
C1091     Br1098   1.922       .  S
C1092      C1093   1.405       .  A
C1092      H1097   1.085       .  S
C1093      C1094   1.416       .  A
C1094     Br1095   1.922       .  S
C1099      C1100   1.407       .  A
C1099      H1106   1.085       .  S
C1100      C1101   1.413       .  A
C1101      C1102   1.401       .  A
C1101     Br1108   1.921       .  S
C1102      H1107   1.085       .  S
C1103      C1104   1.413       .  A
C1104     Br1105   1.920       .  S
C1109      C1110   1.407       .  A
C1109      C1114   1.402       .  A
C1109      H1116   1.084       .  S
C1110      C1111   1.415       .  A
C1111      C1112   1.395       .  A
C1111     Br1118   1.922       .  S
C1112      C1113   1.401       .  A
C1112      H1117   1.084       .  S
C1113      C1114   1.408       .  A
C1114     Br1115   1.918       .  S
C1119      C1120   1.410       .  A
C1119      C1124   1.405       .  A
C1119      H1126   1.083       .  S
C1120      C1517   1.412   1_545  A
C1121      C1516   1.412       .  A
C1121      C1122   1.400       .  A
C1121     Br1128   1.921       .  S
C1122      C1123   1.409       .  A
C1122      H1127   1.084       .  S
C1123      C1520   1.413       .  A
C1124      C1519   1.413   1_545  A
C1124     Br1125   1.920       .  S
C1129      C1130   1.406       .  A
C1129      H1136   1.085       .  S
C1130      C1131   1.412       .  A
C1131      C1132   1.400       .  A
C1131     Br1138   1.921       .  S
C1132      H1137   1.085       .  S
C1133      C1134   1.415       .  A
C1134     Br1135   1.919       .  S
C1139      C1140   1.402       .  A
C1139      C1144   1.396       .  A
C1139      H1146   1.084       .  S
C1140      C1141   1.411       .  A
C1141      C1142   1.399       .  A
C1141     Br1148   1.921       .  S
C1142      C1143   1.407       .  A
C1142      H1147   1.083       .  S
C1143      C1144   1.414       .  A
C1144     Br1145   1.922       .  S
C1149      C1154   1.403       .  A
C1149      H1156   1.083       .  S
C1150      C1151   1.419       .  A
C1151      C1152   1.404       .  A
C1151     Br1158   1.922       .  S
C1152      H1157   1.083       .  S
C1153      C1154   1.421       .  A
C1154     Br1155   1.923       .  S
C1159      C1160   1.407   1_565  A
C1159      C1560   1.405       .  A
C1159      H1166   1.083       .  S
C1160      C1161   1.413   1_556  A
C1161      C1558   1.401   1_545  A
C1161     Br1168   1.921       .  S
C1162      C1557   1.401       .  A
C1162      C1163   1.407       .  A
C1162      H1167   1.083       .  S
C1163      C1164   1.414   1_554  A
C1164      C1555   1.405       .  A
C1164     Br1165   1.920       .  S
C1169      C1170   1.403       .  A
C1169      C1174   1.395   1_556  A
C1169      H1176   1.084   1_556  S
C1170      C1171   1.410       .  A
C1171      C1172   1.396       .  A
C1171     Br1178   1.921       .  S
C1172      C1173   1.405   1_556  A
C1172      H1177   1.083       .  S
C1173      C1174   1.413       .  A
C1174     Br1175   1.922       .  S
C1179      C1180   1.402       .  A
C1179      C1184   1.399       .  A
C1179      H1186   1.084       .  S
C1180      C1181   1.410       .  A
C1181      C1182   1.400       .  A
C1181     Br1188   1.919       .  S
C1182      C1183   1.404       .  A
C1182      H1187   1.084       .  S
C1183      C1184   1.412       .  A
C1184     Br1185   1.921       .  S
In1189     O1191   2.252       .  S
In1189     O1192   2.271       .  S
In1189     O1200   2.251       .  S
In1189     O1194   2.241       .  S
In1189     O1196   2.241       .  S
In1189     O1197   2.278       .  S
In1189     O1198   2.224       .  S
In1189     O1201   2.237       .  S
C1190      O1196   1.261       .  A
C1190      O1198   1.259       .  A
C1190      C1566   1.471       .  S
O1191      C1199   1.259       .  A
O1192      C1199   1.263       .  A
C1193      O1200   1.263       .  A
C1193      O1194   1.260       .  A
C1193      C1576   1.475       .  S
C1195      O1197   1.268       .  A
C1195      O1201   1.257       .  A
C1195      C1546   1.495       .  S
C1199      C1556   1.489       .  S
In1202     O1204   2.254       .  S
In1202     O1205   2.265       .  S
In1202     O1213   2.246       .  S
In1202     O1207   2.229       .  S
In1202     O1209   2.231       .  S
In1202     O1210   2.268       .  S
In1202     O1211   2.239       .  S
In1202     O1214   2.246       .  S
C1203      O1209   1.260       .  A
C1203      O1211   1.261       .  A
C1203      C1539   1.481       .  S
O1204      C1212   1.259       .  A
O1205      C1212   1.262       .  A
C1206      O1213   1.265       .  A
C1206      O1207   1.261       .  A
C1206      C1579   1.477       .  S
C1208      O1210   1.265       .  A
C1208      O1214   1.259       .  A
C1208      C1516   1.493       .  S
C1212      C1526   1.488       .  S
In1215     O1217   2.236       .  S
In1215     O1218   2.276       .  S
In1215     O1226   2.252       .  S
In1215     O1220   2.227       .  S
In1215     O1222   2.232       .  S
In1215     O1223   2.280       .  S
In1215     O1224   2.242       .  S
In1215     O1227   2.230       .  S
C1216      O1222   1.262       .  A
C1216      O1224   1.260       .  A
C1216      C1489   1.483       .  S
O1217      C1225   1.258       .  A
O1218      C1225   1.264       .  A
C1219      O1226   1.265       .  A
C1219      O1220   1.259       .  A
C1219      C1506   1.482       .  S
C1221      O1223   1.265       .  A
C1221      O1227   1.258       .  A
C1221      C1519   1.494       .  S
C1225      C1499   1.489       .  S
In1228     O1230   2.239       .  S
In1228     O1231   2.279       .  S
In1228     O1239   2.261       .  S
In1228     O1233   2.215       .  S
In1228     O1235   2.235       .  S
In1228     O1236   2.289       .  S
In1228     O1237   2.231       .  S
In1228     O1240   2.230       .  S
C1229      O1235   1.262       .  A
C1229      O1237   1.261       .  A
C1229      C1476   1.473       .  S
O1230      C1238   1.259       .  A
O1231      C1238   1.263       .  A
C1232      O1239   1.265       .  A
C1232      O1233   1.260       .  A
C1232      C1509   1.474       .  S
C1234      O1236   1.267       .  A
C1234      O1240   1.253       .  A
C1234      C1549   1.496       .  S
C1238      C1466   1.494       .  S
In1241     O1243   2.238       .  S
In1241     O1244   2.266       .  S
In1241     O1252   2.244       .  S
In1241     O1246   2.218       .  S
In1241     O1248   2.240       .  S
In1241     O1249   2.261       .  S
In1241     O1250   2.219       .  S
In1241     O1253   2.242       .  S
C1242      O1248   1.261       .  A
C1242      O1250   1.259       .  A
C1242      C1449   1.472       .  S
O1243      C1251   1.258       .  A
O1244      C1251   1.262       .  A
C1245      O1252   1.264       .  A
C1245      O1246   1.260       .  A
C1245      C1459   1.470       .  S
C1247      O1249   1.266       .  A
C1247      O1253   1.257       .  A
C1247      C1426   1.491       .  S
C1251      C1436   1.484       .  S
In1254     O1256   2.245       .  S
In1254     O1257   2.268       .  S
In1254     O1265   2.248       .  S
In1254     O1259   2.220       .  S
In1254     O1261   2.241       .  S
In1254     O1262   2.280       .  S
In1254     O1263   2.229       .  S
In1254     O1266   2.231       .  S
C1255      O1261   1.261       .  A
C1255      O1263   1.261       .  A
C1255      C1536   1.476       .  S
O1256      C1264   1.258       .  A
O1257      C1264   1.263       .  A
C1258      O1265   1.264       .  A
C1258      O1259   1.260       .  A
C1258      C1456   1.470       .  S
C1260      O1262   1.266       .  A
C1260      O1266   1.258       .  A
C1260      C1416   1.491       .  S
C1264      C1496   1.489       .  S
In1267     O1269   2.253       .  S
In1267     O1270   2.264       .  S
In1267     O1278   2.253       .  S
In1267     O1272   2.213       .  S
In1267     O1274   2.231       .  S
In1267     O1275   2.283       .  S
In1267     O1276   2.233       .  S
In1267     O1279   2.242       .  S
C1268      O1274   1.259       .  A
C1268      O1276   1.261       .  A
C1268      C1569   1.476       .  S
O1269      C1277   1.258       .  A
O1270      C1277   1.262       .  A
C1271      O1278   1.265       .  A
C1271      O1272   1.261       .  A
C1271      C1406   1.479       .  S
C1273      O1275   1.264       .  A
C1273      O1279   1.257       .  A
C1273      C1399   1.495       .  S
C1277      C1469   1.488       .  S
In1280     O1282   2.235       .  S
In1280     O1283   2.261       .  S
In1280     O1291   2.243       .  S
In1280     O1285   2.218       .  S
In1280     O1287   2.217       .  S
In1280     O1288   2.263       .  S
In1280     O1289   2.230       .  S
In1280     O1292   2.234       .  S
C1281      O1287   1.264       .  A
C1281      O1289   1.261       .  A
C1281      C1446   1.476       .  S
O1282      C1290   1.260       .  A
O1283      C1290   1.267       .  A
C1284      O1291   1.263       .  A
C1284      O1285   1.261       .  A
C1284      C1409   1.469       .  S
C1286      O1288   1.267       .  A
C1286      O1292   1.259       .  A
C1286      C1376   1.492       .  S
C1290      C1386   1.487       .  S
In1293     O1295   2.239       .  S
In1293     O1296   2.276       .  S
In1293     O1304   2.248       .  S
In1293     O1298   2.230       .  S
In1293     O1300   2.242       .  S
In1293     O1301   2.276       .  S
In1293     O1302   2.232       .  S
In1293     O1305   2.228       .  S
C1294      O1300   1.261       .  A
C1294      O1302   1.261       .  A
C1294      C1359   1.481       .  S
O1295      C1303   1.258       .  A
O1296      C1303   1.263       .  A
C1297      O1304   1.264       .  A
C1297      O1298   1.263       .  A
C1297      C1369   1.479       .  S
C1299      O1301   1.267       .  A
C1299      O1305   1.257       .  A
C1299      C1429   1.490       .  S
C1303      C1389   1.488       .  S
In1306     O1308   2.241       .  S
In1306     O1309   2.279       .  S
In1306     O1317   2.247       .  S
In1306     O1311   2.237       .  S
In1306     O1313   2.251       .  S
In1306     O1314   2.271       .  S
In1306     O1315   2.231       .  S
In1306     O1318   2.235       .  S
C1307      O1313   1.262       .  A
C1307      O1315   1.259       .  A
C1307      C1486   1.478       .  S
O1308      C1316   1.259       .  A
O1309      C1316   1.263       .  A
C1310      O1317   1.264       .  A
C1310      O1311   1.262       .  A
C1310      C1366   1.475       .  S
C1312      O1314   1.266       .  A
C1312      O1318   1.259       .  A
C1312      C1419   1.492       .  S
C1316      C1529   1.494       .  S
In1319     O1321   2.238       .  S
In1319     O1322   2.269       .  S
In1319     O1330   2.254       .  S
In1319     O1324   2.229       .  S
In1319     O1326   2.233       .  S
In1319     O1327   2.271       .  S
In1319     O1328   2.240       .  S
In1319     O1331   2.231       .  S
C1320      O1326   1.260       .  A
C1320      O1328   1.261       .  A
C1320      C1356   1.482       .  S
O1321      C1329   1.258       .  A
O1322      C1329   1.262       .  A
C1323      O1330   1.264       .  A
C1323      O1324   1.260       .  A
C1323      C1346   1.477       .  S
C1325      O1327   1.265       .  A
C1325      O1331   1.258       .  A
C1325      C1379   1.485       .  S
C1329      C1439   1.488       .  S
In1332     O1334   2.234       .  S
In1332     O1335   2.275       .  S
In1332     O1343   2.254       .  S
In1332     O1337   2.227       .  S
In1332     O1339   2.237       .  S
In1332     O1340   2.263       .  S
In1332     O1341   2.227       .  S
In1332     O1344   2.249       .  S
C1333      O1339   1.263       .  A
C1333      O1341   1.259       .  A
C1333      C1479   1.479       .  S
O1334      C1342   1.259       .  A
O1335      C1342   1.265       .  A
C1336      O1343   1.263       .  A
C1336      O1337   1.261       .  A
C1336      C1349   1.473       .  S
C1338      O1340   1.266       .  A
C1338      O1344   1.260       .  A
C1338      C1396   1.495       .  S
C1342      C1559   1.491       .  S
C1345      C1346   1.403       .  A
C1345      C1350   1.399       .  A
C1345      H1352   1.084       .  S
C1346      C1347   1.413       .  A
C1347      C1348   1.400       .  A
C1347     Br1354   1.920       .  S
C1348      C1349   1.401       .  A
C1348      H1353   1.084       .  S
C1349      C1350   1.409       .  A
C1350     Br1351   1.920       .  S
C1355      C1356   1.406       .  A
C1355      C1360   1.398       .  A
C1355      H1362   1.083       .  S
C1356      C1357   1.414       .  A
C1357      C1358   1.397       .  A
C1357     Br1364   1.923       .  S
C1358      C1359   1.405       .  A
C1358      H1363   1.083       .  S
C1359      C1360   1.412       .  A
C1360     Br1361   1.921       .  S
C1365      C1366   1.403       .  A
C1365      C1370   1.401       .  A
C1365      H1372   1.084       .  S
C1366      C1367   1.408       .  A
C1367      C1368   1.398       .  A
C1367     Br1374   1.920       .  S
C1368      C1369   1.405       .  A
C1368      H1373   1.083       .  S
C1369      C1370   1.413       .  A
C1370     Br1371   1.921       .  S
C1375      C1376   1.411       .  A
C1375      C1380   1.403       .  A
C1375      H1382   1.084       .  S
C1377      C1378   1.400       .  A
C1377     Br1384   1.920       .  S
C1378      C1379   1.406       .  A
C1378      H1383   1.085       .  S
C1380     Br1381   1.921       .  S
C1385      C1386   1.407       .  A
C1385      C1390   1.404       .  A
C1385      H1392   1.085       .  S
C1386      C1387   1.412       .  A
C1387      C1388   1.401       .  A
C1387     Br1394   1.920       .  S
C1388      C1389   1.405       .  A
C1388      H1393   1.085       .  S
C1389      C1390   1.414       .  A
C1390     Br1391   1.921       .  S
C1395      C1396   1.410       .  A
C1395      C1400   1.406       .  A
C1395      H1402   1.084       .  S
C1396      C1397   1.413       .  A
C1397      C1398   1.402       .  A
C1397     Br1404   1.921       .  S
C1398      C1399   1.409       .  A
C1398      H1403   1.084       .  S
C1399      C1400   1.413       .  A
C1400     Br1401   1.920       .  S
C1405      C1406   1.406       .  A
C1405      C1410   1.393       .  A
C1405      H1412   1.084       .  S
C1406      C1407   1.414       .  A
C1407      C1408   1.401       .  A
C1407     Br1414   1.919       .  S
C1408      C1409   1.402       .  A
C1408      H1413   1.083       .  S
C1409      C1410   1.407       .  A
C1410     Br1411   1.922       .  S
C1415      C1416   1.408       .  A
C1415      C1420   1.401       .  A
C1415      H1422   1.084       .  S
C1416      C1417   1.412       .  A
C1417      C1418   1.403       .  A
C1417     Br1424   1.920       .  S
C1418      C1419   1.410       .  A
C1418      H1423   1.084       .  S
C1419      C1420   1.412       .  A
C1420     Br1421   1.920       .  S
C1425      C1430   1.399       .  A
C1425      H1432   1.083       .  S
C1426      C1427   1.419       .  A
C1427      C1428   1.404       .  A
C1427     Br1434   1.922       .  S
C1428      H1433   1.083       .  S
C1429      C1430   1.416       .  A
C1430     Br1431   1.922       .  S
C1435      C1436   1.405       .  A
C1435      C1440   1.401       .  A
C1435      H1442   1.085       .  S
C1436      C1437   1.412       .  A
C1437      C1438   1.400       .  A
C1437     Br1444   1.920       .  S
C1438      C1439   1.407       .  A
C1438      H1443   1.085       .  S
C1439      C1440   1.414       .  A
C1440     Br1441   1.920       .  S
C1445      C1446   1.402       .  A
C1445      C1450   1.390       .  A
C1445      H1452   1.085       .  S
C1446      C1447   1.415       .  A
C1447      C1448   1.398       .  A
C1447     Br1454   1.922       .  S
C1448      C1449   1.403       .  A
C1448      H1453   1.084       .  S
C1449      C1450   1.409       .  A
C1450     Br1451   1.918       .  S
C1455      C1456   1.402       .  A
C1455      C1460   1.398       .  A
C1455      H1462   1.084       .  S
C1456      C1457   1.410       .  A
C1457      C1458   1.396       .  A
C1457     Br1464   1.920       .  S
C1458      C1459   1.401       .  A
C1458      H1463   1.084       .  S
C1459      C1460   1.411       .  A
C1460     Br1461   1.921       .  S
C1465      C1466   1.407       .  A
C1465      H1472   1.084       .  S
C1466      C1467   1.415   1_556  A
C1467     Br1474   1.920       .  S
C1468      C1469   1.407       .  A
C1468      H1473   1.084       .  S
C1469      C1470   1.413   1_554  A
C1470     Br1471   1.921       .  S
C1475      C1476   1.402       .  A
C1475      C1480   1.397       .  A
C1475      H1482   1.085       .  S
C1476      C1477   1.409   1_556  A
C1477      C1478   1.396       .  A
C1477     Br1484   1.921       .  S
C1478      C1479   1.405       .  A
C1478      H1483   1.084       .  S
C1479      C1480   1.416   1_554  A
C1480     Br1481   1.923       .  S
C1485      C1486   1.404       .  A
C1485      C1490   1.400       .  A
C1485      H1492   1.085       .  S
C1486      C1487   1.410       .  A
C1487      C1488   1.396       .  A
C1487     Br1494   1.922       .  S
C1488      C1489   1.405       .  A
C1488      H1493   1.085       .  S
C1489      C1490   1.416       .  A
C1490     Br1491   1.922       .  S
C1495      C1496   1.407       .  A
C1495      H1502   1.085       .  S
C1496      C1497   1.413       .  A
C1497      C1498   1.401       .  A
C1497     Br1504   1.921       .  S
C1498      H1503   1.085       .  S
C1499      C1500   1.413       .  A
C1500     Br1501   1.920       .  S
C1505      C1506   1.407       .  A
C1505      C1510   1.402       .  A
C1505      H1512   1.084       .  S
C1506      C1507   1.415       .  A
C1507      C1508   1.395       .  A
C1507     Br1514   1.922       .  S
C1508      C1509   1.401       .  A
C1508      H1513   1.084       .  S
C1509      C1510   1.408       .  A
C1510     Br1511   1.918       .  S
C1515      C1516   1.410       .  A
C1515      C1520   1.405       .  A
C1515      H1522   1.083       .  S
C1517      C1518   1.400       .  A
C1517     Br1524   1.921       .  S
C1518      C1519   1.409       .  A
C1518      H1523   1.084       .  S
C1520     Br1521   1.920       .  S
C1525      C1526   1.406       .  A
C1525      H1532   1.085       .  S
C1526      C1527   1.412       .  A
C1527      C1528   1.400       .  A
C1527     Br1534   1.921       .  S
C1528      H1533   1.085       .  S
C1529      C1530   1.415       .  A
C1530     Br1531   1.919       .  S
C1535      C1536   1.402       .  A
C1535      C1540   1.396       .  A
C1535      H1542   1.084       .  S
C1536      C1537   1.411       .  A
C1537      C1538   1.399       .  A
C1537     Br1544   1.921       .  S
C1538      C1539   1.407       .  A
C1538      H1543   1.083       .  S
C1539      C1540   1.414       .  A
C1540     Br1541   1.922       .  S
C1545      C1550   1.403       .  A
C1545      H1552   1.083       .  S
C1546      C1547   1.419       .  A
C1547      C1548   1.404       .  A
C1547     Br1554   1.922       .  S
C1548      H1553   1.083       .  S
C1549      C1550   1.421       .  A
C1550     Br1551   1.923       .  S
C1555      C1556   1.407       .  A
C1555      H1562   1.083       .  S
C1556      C1557   1.413   1_556  A
C1557     Br1564   1.921       .  S
C1558      C1559   1.407       .  A
C1558      H1563   1.083       .  S
C1559      C1560   1.414   1_554  A
C1560     Br1561   1.920       .  S
C1565      C1566   1.403       .  A
C1565      C1570   1.395   1_556  A
C1565      H1572   1.084   1_556  S
C1566      C1567   1.410       .  A
C1567      C1568   1.396       .  A
C1567     Br1574   1.921       .  S
C1568      C1569   1.405   1_556  A
C1568      H1573   1.083       .  S
C1569      C1570   1.413       .  A
C1570     Br1571   1.922       .  S
C1575      C1576   1.402       .  A
C1575      C1580   1.399       .  A
C1575      H1582   1.084       .  S
C1576      C1577   1.410       .  A
C1577      C1578   1.400       .  A
C1577     Br1584   1.919       .  S
C1578      C1579   1.404       .  A
C1578      H1583   1.084       .  S
C1579      C1580   1.412       .  A
C1580     Br1581   1.921       .  S
