geometry optimzed in LAMMPS
_audit_creation_date              2020-12-01 
_audit_creation_method            'lammps2cif' 
_symmetry_space_group_name_H-M    'P1' 
_symmetry_Int_Tables_number       1 
_symmetry_cell_setting            triclinic 
loop_ 
_symmetry_equiv_pos_as_xyz 
  x,y,z 
_cell_length_a                    57.28838449 
_cell_length_b                    57.82660943971358 
_cell_length_c                    58.0653097457537 
_cell_angle_alpha                 89.9248408103894 
_cell_angle_beta                  89.57972695903132 
_cell_angle_gamma                 89.57335178115116 
loop_ 
_atom_site_label 
_atom_site_type_symbol 
_atom_site_fract_x 
_atom_site_fract_y 
_atom_site_fract_z 
_atom_site_charge 
N1          N  0.01602920  0.24224222  0.60707953    -0.25600
N2          N  0.01092589  0.24815520  0.58574564    -0.33400
C3          C  0.03061911  0.24930850  0.57324596     0.02800
C4          C  0.04916251  0.24392785  0.58744540     0.08800
C5          C  0.03934969  0.23972727  0.60887695    -0.04300
H6          H  0.03129999  0.25370408  0.55513520     0.09400
H7          H  0.04836657  0.23452733  0.62437215     0.10600
Cu8        Cu  0.97743367  0.25344094  0.57442288     0.44200
Cu9        Cu  0.98993555  0.23653968  0.63116826     0.42000
Cu10       Cu  0.92811344  0.24262479  0.61041187     0.43900
N11         N  0.94361484  0.25563383  0.56311062    -0.33000
N12         N  0.92483250  0.25164634  0.57578540    -0.27200
C13         C  0.90588447  0.25249833  0.56200260    -0.03300
C14         C  0.91354647  0.25710781  0.53970474     0.08900
C15         C  0.93741189  0.25894728  0.54121422     0.02700
H16         H  0.88824847  0.24862880  0.56748467     0.10300
H17         H  0.94961456  0.26139468  0.52711211     0.09400
N18         N  0.93835914  0.23240408  0.64335427    -0.34400
N19         N  0.96018240  0.23018347  0.65056740    -0.26600
C20         C  0.96003685  0.22231437  0.67237914    -0.01800
C21         C  0.93714513  0.21957164  0.67914885     0.06800
C22         C  0.92384879  0.22603477  0.66049661     0.04900
H23         H  0.97547415  0.21844462  0.68232440     0.10000
H24         H  0.90501469  0.22564654  0.65925655     0.08800
N25         N  0.76466791  0.36919185  0.95046525    -0.25600
N26         N  0.76445995  0.39114352  0.94417791    -0.33400
C27         C  0.75449964  0.40391578  0.96084308     0.02800
C28         C  0.74805552  0.38940123  0.97874397     0.08800
C29         C  0.75492700  0.36746094  0.97163919    -0.04300
H30         H  0.75243810  0.42248863  0.95993209     0.09400
H31         H  0.75283603  0.35144895  0.98107069     0.10600
Cu32       Cu  0.77686596  0.40327974  0.91305536     0.44200
Cu33       Cu  0.77798146  0.34353786  0.92878073     0.42000
Cu34       Cu  0.78944435  0.36319172  0.86851449     0.43900
N35         N  0.78355925  0.41334936  0.87962218    -0.33000
N36         N  0.78687684  0.39864752  0.86251592    -0.27200
C37         C  0.78748110  0.41057970  0.84253638    -0.03300
C38         C  0.78462299  0.43389216  0.84749184     0.08900
C39         C  0.78223728  0.43492315  0.87120896     0.02700
H40         H  0.78927263  0.40284150  0.82565228     0.10300
H41         H  0.77831849  0.45002959  0.88154646     0.09400
N42         N  0.79517231  0.32978994  0.88094651    -0.34400
N43         N  0.79168912  0.32287713  0.90248056    -0.26600
C44         C  0.79894521  0.30074269  0.90453202    -0.01800
C45         C  0.80727290  0.29351484  0.88334582     0.06800
C46         C  0.80459050  0.31220629  0.86881829     0.04900
H47         H  0.79849940  0.29084915  0.92030870     0.10000
H48         H  0.80964237  0.31317280  0.85082281     0.08800
N49         N  0.66487592  0.00690468  0.72928268    -0.25600
N50         N  0.64865005  0.01059453  0.71363271    -0.33400
C51         C  0.63808457  0.99058247  0.70874677     0.02800
C52         C  0.64785976  0.97341575  0.72221200     0.08800
C53         C  0.66468450  0.98435211  0.73520453    -0.04300
H54         H  0.62290137  0.98906458  0.69788893     0.09400
H55         H  0.67530885  0.97670775  0.74857110     0.10600
Cu56       Cu  0.63701370  0.04313905  0.70477940     0.44200
Cu57       Cu  0.68474591  0.03375831  0.74246558     0.42000
Cu58       Cu  0.66335209  0.09293839  0.73058381     0.43900
N59         N  0.62044541  0.07477033  0.70740706    -0.33000
N60         N  0.62963635  0.09344112  0.71669900    -0.27200
C61         C  0.61289027  0.11000389  0.71810036    -0.03300
C62         C  0.59227335  0.10095272  0.70957491     0.08900
C63         C  0.59778108  0.07864718  0.70313982     0.02700
H64         H  0.61507087  0.12662818  0.72629103     0.10300
H65         H  0.58584232  0.06569664  0.69693628     0.09400
N66         N  0.69540974  0.08506110  0.74617338    -0.34400
N67         N  0.70275969  0.06375967  0.75073775    -0.26600
C68         C  0.72384865  0.06474609  0.76079026    -0.01800
C69         C  0.73006242  0.08766807  0.76270101     0.06800
C70         C  0.71175551  0.10010482  0.75323907     0.04900
H71         H  0.73402869  0.04984354  0.76598200     0.10000
H72         H  0.71049216  0.11868954  0.75141701     0.08800
C73         C  0.83550851  0.23354561  0.85781670     0.88200
C74         C  0.85118588  0.21716435  0.87216243    -0.52000
C75         C  0.85945010  0.19874886  0.85968576     0.11100
C76         C  0.85140120  0.19852478  0.83468920     0.22100
C77         C  0.85052632  0.24046361  0.83685086    -0.52800
C78         C  0.85854987  0.22197367  0.82459352     0.11200
C79         C  0.81617243  0.21803664  0.84799070    -0.52300
C80         C  0.82465536  0.19942405  0.83612042     0.11800
H81         H  0.85505237  0.21971668  0.89026999     0.16300
H82         H  0.85856657  0.18366742  0.82471556     0.02000
H83         H  0.85391453  0.25824574  0.83182220     0.16600
H84         H  0.79762122  0.22134274  0.85038340     0.16400
C85         C  0.79313890  0.11422874  0.78347240     0.88200
C86         C  0.81088011  0.09697356  0.79418549    -0.52000
C87         C  0.83185201  0.10697706  0.79907016     0.11100
C88         C  0.83313164  0.13244399  0.79272066     0.22100
C89         C  0.79150300  0.13426242  0.80099524    -0.52800
C90         C  0.81276731  0.14351938  0.80586553     0.11200
C91         C  0.80552103  0.12467993  0.76229042    -0.52300
C92         C  0.82661020  0.13409804  0.76724610     0.11800
H93         H  0.80673272  0.07925591  0.79876037     0.16300
H94         H  0.85014486  0.14032865  0.79688720     0.02000
H95         H  0.77545380  0.13964142  0.80959827     0.16600
H96         H  0.79797655  0.12526108  0.74518455     0.16400
C97         C  0.90881927  0.19140491  0.73766979     0.88200
C98         C  0.92558022  0.17943720  0.75468798    -0.65200
C99         C  0.91418006  0.16967102  0.77292416     0.11100
C100        C  0.88769500  0.17279845  0.77247096     0.22100
C101        C  0.89120513  0.17254324  0.73082830    -0.52800
C102        C  0.88018787  0.16290684  0.74936597     0.11200
C103        C  0.89461707  0.20889332  0.75220541    -0.52300
C104        C  0.88345714  0.19880090  0.77038750     0.11800
H105        H  0.94438583  0.17845375  0.75234113     0.16300
H106        H  0.87873899  0.16492094  0.78749575     0.02000
H107        H  0.88805427  0.16715743  0.71321722     0.16600
H108        H  0.89271046  0.22711702  0.74794919     0.16400
C109        C  0.92168215  0.10683674  0.86220187     0.88200
C110        C  0.90153522  0.09318583  0.85115120    -0.52000
C111        C  0.88722867  0.10653417  0.83792689     0.11100
C112        C  0.89433759  0.13202100  0.83670737     0.22100
C113        C  0.93429910  0.11847060  0.84162558    -0.52800
C114        C  0.91972228  0.13160131  0.82837128     0.11200
C115        C  0.90982128  0.12707201  0.87528839    -0.52300
C116        C  0.89564147  0.14029498  0.86170440     0.11800
H117        H  0.89896947  0.07473684  0.85345866     0.16300
H118        H  0.88267310  0.14282411  0.82580618     0.02000
H119        H  0.95278803  0.11646021  0.83790676     0.16600
H120        H  0.91304374  0.13099466  0.89328633     0.16400
N121        N  0.20417585  0.65484409  0.96620583    -0.25600
N122        N  0.20267478  0.63259952  0.96151930    -0.33400
C123        C  0.20457745  0.62035244  0.98100069     0.02800
C124        C  0.20732736  0.63562505  0.99907047     0.08800
C125        C  0.20716653  0.65740845  0.98907428    -0.04300
H126        H  0.20477715  0.60165427  0.98170683     0.09400
H127        H  0.20915601  0.67382484  0.99773577     0.10600
Cu128      Cu  0.20079493  0.61969023  0.92875102     0.44200
Cu129      Cu  0.20229611  0.67926346  0.94005144     0.42000
Cu130      Cu  0.20797570  0.65596074  0.87985292     0.43900
N131        N  0.20790841  0.60715736  0.89646441    -0.33000
N132        N  0.21208147  0.62002634  0.87810982    -0.27200
C133        C  0.21893054  0.60597916  0.86065689    -0.03300
C134        C  0.21877826  0.58333462  0.86878798     0.08900
C135        C  0.21167096  0.58489766  0.89140456     0.02700
H136        H  0.22390524  0.61180437  0.84361878     0.10300
H137        H  0.21028069  0.57086982  0.90368999     0.09400
N138        N  0.19988911  0.69023071  0.88870581    -0.34400
N139        N  0.19795342  0.69834849  0.91000571    -0.26600
C140        C  0.19157342  0.72077716  0.90915157    -0.01800
C141        C  0.18945051  0.72706864  0.88637046     0.06800
C142        C  0.19473658  0.70740530  0.87384336     0.04900
H143        H  0.18822030  0.73153504  0.92408193     0.10000
H144        H  0.19437413  0.70555141  0.85531994     0.08800
N145        N  0.38017388  0.91471989  0.72768261    -0.25600
N146        N  0.39441111  0.93250685  0.72888275    -0.33400
C147        C  0.41658607  0.92484080  0.72858525     0.02800
C148        C  0.41651428  0.90091424  0.72699792     0.08800
C149        C  0.39304512  0.89508779  0.72629429    -0.04300
H150        H  0.43163067  0.93603273  0.72882119     0.09400
H151        H  0.38589002  0.87787661  0.72505849     0.10600
Cu152      Cu  0.38291172  0.96651423  0.72897822     0.44200
Cu153      Cu  0.34408118  0.91970525  0.72924820     0.42000
Cu154      Cu  0.32164670  0.98069065  0.72883807     0.43900
N155        N  0.36992715  0.99969822  0.72448339    -0.33000
N156        N  0.34754398  0.00531757  0.72383331    -0.27200
C157        C  0.34556643  0.02834022  0.72028038    -0.03300
C158        C  0.36782289  0.03754842  0.71886565     0.08900
C159        C  0.38274154  0.01876557  0.72144803     0.02700
H160        H  0.32919770  0.03773053  0.71929956     0.10300
H161        H  0.40161502  0.01876808  0.72101875     0.09400
N162        N  0.30187773  0.95162655  0.73694841    -0.34400
N163        N  0.30987599  0.93003791  0.73681620    -0.26600
C164        C  0.29308786  0.91598469  0.74489902    -0.01800
C165        C  0.27377108  0.92926094  0.75041362     0.06800
C166        C  0.27981035  0.95173282  0.74516064     0.04900
H167        H  0.29522373  0.89756528  0.74760009     0.10000
H168        H  0.26934777  0.96715775  0.74803874     0.08800
N169        N  0.99408097  0.79603681  0.59824869    -0.25600
N170        N  0.00025256  0.79980241  0.57660529    -0.33400
C171        C  0.98195318  0.79605322  0.56293995     0.02800
C172        C  0.96308874  0.78935458  0.57642572     0.08800
C173        C  0.97142157  0.78970210  0.59882843    -0.04300
H174        H  0.98303756  0.79690818  0.54437955     0.09400
H175        H  0.96204820  0.78462906  0.61424758     0.10600
Cu176      Cu  0.03398918  0.80500811  0.56483033     0.44200
Cu177      Cu  0.01819532  0.79764332  0.62490889     0.42000
Cu178      Cu  0.07966639  0.79664720  0.60423123     0.43900
N179        N  0.06816080  0.79979373  0.55410067    -0.33000
N180        N  0.08520726  0.79553857  0.56871277    -0.27200
C181        C  0.10461285  0.78972498  0.55671384    -0.03300
C182        C  0.09953684  0.79045851  0.53340800     0.08900
C183        C  0.07618508  0.79695702  0.53244985     0.02700
H184        H  0.12103321  0.78465152  0.56439181     0.10300
H185        H  0.06539557  0.79823983  0.51729077     0.09400
N186        N  0.06924306  0.80052220  0.63853503    -0.34400
N187        N  0.04731025  0.80093691  0.64598753    -0.26600
C188        C  0.04711824  0.80510379  0.66881718    -0.01800
C189        C  0.06990547  0.80739257  0.67595944     0.06800
C190        C  0.08347307  0.80441225  0.65644043     0.04900
H191        H  0.03149845  0.80701807  0.67927202     0.10000
H192        H  0.10227942  0.80569154  0.65517364     0.08800
C193        C  0.21473730  0.90325053  0.78144511     0.88200
C194        C  0.20042285  0.91975005  0.79707702    -0.52000
C195        C  0.18090997  0.90958607  0.80600434     0.11100
C196        C  0.17756721  0.88452747  0.79860550     0.22100
C197        C  0.21987531  0.88183646  0.79657242    -0.52800
C198        C  0.20015454  0.87188139  0.80532172     0.11200
C199        C  0.19741000  0.89490104  0.76308166    -0.52300
C200        C  0.17786907  0.88527029  0.77239762     0.11800
H201        H  0.20508380  0.93757698  0.80047788     0.16300
H202        H  0.16148454  0.87664460  0.80586019     0.02000
H203        H  0.23728817  0.87503016  0.79970379     0.16600
H204        H  0.19998815  0.89706238  0.74465503     0.16400
C205        C  0.16445833  0.78763477  0.85838026     0.88200
C206        C  0.15286609  0.80507555  0.87516028    -0.52000
C207        C  0.14339626  0.82371386  0.86406768     0.11100
C208        C  0.14626021  0.82315906  0.83796978     0.22100
C209        C  0.14527174  0.78137701  0.84097731    -0.52800
C210        C  0.13579396  0.80028478  0.83048668     0.11200
C211        C  0.18233586  0.80185491  0.84430670    -0.52300
C212        C  0.17243341  0.82046177  0.83349142     0.11800
H213        H  0.15216848  0.80285992  0.89371093     0.16300
H214        H  0.13842317  0.83834704  0.82914266     0.02000
H215        H  0.13995512  0.76381104  0.83713353     0.16600
H216        H  0.20054046  0.79690908  0.84200072     0.16400
C217        C  0.09859037  0.82639874  0.73765470     0.88200
C218        C  0.08527939  0.84374524  0.75337676    -0.52000
C219        C  0.09765128  0.84990876  0.77247920     0.11100
C220        C  0.12167971  0.83836044  0.77390330     0.22100
C221        C  0.12199703  0.83802885  0.73203084    -0.52800
C222        C  0.13396433  0.84435364  0.75112309     0.11200
C223        C  0.10493426  0.80586120  0.75334160    -0.52300
C224        C  0.11689029  0.81230873  0.77245615     0.11800
H225        H  0.06790498  0.85039353  0.74975295     0.16300
H226        H  0.13171950  0.84351205  0.78931797     0.02000
H227        H  0.12835823  0.84121480  0.71464795     0.16600
H228        H  0.10033376  0.78804127  0.74976608     0.16400
C229        C  0.08624005  0.91637963  0.86142360     0.88200
C230        C  0.10833604  0.92902693  0.85281386    -0.52000
C231        C  0.12386811  0.91475983  0.84188481     0.11100
C232        C  0.11602968  0.88958515  0.84028094     0.22100
C233        C  0.07634940  0.90461531  0.83959296    -0.52800
C234        C  0.09222759  0.89063140  0.82854405     0.11200
C235        C  0.09532166  0.89618043  0.87638875    -0.52300
C236        C  0.11090091  0.88224452  0.86513751     0.11800
H237        H  0.11129589  0.94742850  0.85505143     0.16300
H238        H  0.12877828  0.87816531  0.83127717     0.02000
H239        H  0.05868838  0.90728141  0.83342708     0.16600
H240        H  0.08960159  0.89301301  0.89398039     0.16400
N241        N  0.60809666  0.90832952  0.19780098    -0.25600
N242        N  0.59781531  0.92209121  0.21292518    -0.33400
C243        C  0.57700738  0.91336997  0.21883434     0.02800
C244        C  0.57402965  0.89290839  0.20696768     0.08800
C245        C  0.59417089  0.89007117  0.19388942    -0.04300
H246        H  0.56448460  0.92190705  0.23004914     0.09400
H247        H  0.59767715  0.87668820  0.18130429     0.10600
Cu248      Cu  0.61103201  0.95366653  0.22199296     0.44200
Cu249      Cu  0.63914949  0.91803021  0.18210195     0.42000
Cu250      Cu  0.66130474  0.97797311  0.19469667     0.43900
N251        N  0.62026886  0.98769058  0.22543130    -0.33000
N252        N  0.63823243  0.99758619  0.21509780    -0.27200
C253        C  0.63663580  0.02069708  0.21851086    -0.03300
C254        C  0.61657590  0.02515868  0.23150621     0.08900
C255        C  0.60686701  0.00384177  0.23551628     0.02700
H256        H  0.64818606  0.03329517  0.21080974     0.10300
H257        H  0.59023678  0.00042260  0.24374892     0.09400
N258        N  0.67910192  0.95232699  0.17582196    -0.34400
N259        N  0.67087893  0.93145821  0.17118457    -0.26600
C260        C  0.68720952  0.91928512  0.15958984    -0.01800
C261        C  0.70656952  0.93297891  0.15679814     0.06800
C262        C  0.70100257  0.95375874  0.16727976     0.04900
H263        H  0.68538961  0.90143938  0.15435904     0.10000
H264        H  0.71225685  0.96856909  0.16919486     0.08800
N265        N  0.73463862  0.64184520  0.03882232    -0.25600
N266        N  0.72083245  0.63718731  0.02130214    -0.33400
C267        C  0.70773596  0.61878868  0.02658987     0.02800
C268        C  0.71364536  0.61118549  0.04831500     0.08800
C269        C  0.73073880  0.62628054  0.05572743    -0.04300
H270        H  0.69628638  0.61022966  0.01460980     0.09400
H271        H  0.74068343  0.62516617  0.07146320     0.10600
Cu272      Cu  0.72433111  0.65104734  0.98857408     0.44200
Cu273      Cu  0.75986418  0.66745783  0.03718443     0.42000
Cu274      Cu  0.77418056  0.68592827  0.97855493     0.43900
N275        N  0.73813115  0.65642083  0.95595908    -0.33000
N276        N  0.75751803  0.66818399  0.95247454    -0.27200
C277        C  0.76480381  0.66488852  0.93064573    -0.03300
C278        C  0.74909860  0.65059051  0.91979539     0.08900
C279        C  0.73235082  0.64556053  0.93634503     0.02700
H280        H  0.78091943  0.67154277  0.92351193     0.10300
H281        H  0.71821787  0.63334991  0.93485362     0.09400
N282        N  0.78624851  0.70205943  0.00798906    -0.34400
N283        N  0.78126860  0.69526635  0.02923854    -0.26600
C284        C  0.79017386  0.71056640  0.04417520    -0.01800
C285        C  0.80123802  0.72765113  0.03169342     0.06800
C286        C  0.79839114  0.72185889  0.00886623     0.04900
H287        H  0.78764188  0.70996185  0.06263668     0.10000
H288        H  0.80365232  0.73187191  0.99398750     0.08800
N289        N  0.00281716  0.76592451  0.29198556    -0.25600
N290        N  0.99898446  0.74727934  0.30459827    -0.33400
C291        C  0.01887681  0.74093552  0.31500544     0.02800
C292        C  0.03599491  0.75654599  0.30888399     0.08800
C293        C  0.02522816  0.77221835  0.29438197    -0.04300
H294        H  0.02015893  0.72740661  0.32783846     0.09400
H295        H  0.03278082  0.78770236  0.28707666     0.10600
Cu296      Cu  0.96605053  0.73532273  0.31243299     0.44200
Cu297      Cu  0.97659244  0.78302601  0.27421730     0.42000
Cu298      Cu  0.91706466  0.76753214  0.29142607     0.43900
N299        N  0.93308948  0.73338890  0.32683455    -0.33000
N300        N  0.91486009  0.74535235  0.31950196    -0.27200
C301        C  0.89739165  0.74343712  0.33506723    -0.03300
C302        C  0.90526859  0.72979388  0.35310700     0.08900
C303        C  0.92789296  0.72379648  0.34725256     0.02700
H304        H  0.88119094  0.75314524  0.33442274     0.10300
H305        H  0.94041435  0.71495398  0.35807735     0.09400
N306        N  0.92526337  0.78973044  0.26443153    -0.34400
N307        N  0.94675067  0.79537368  0.25815379    -0.26600
C308        C  0.94574427  0.80900533  0.23935898    -0.01800
C309        C  0.92256250  0.81209468  0.23373991     0.06800
C310        C  0.91005944  0.79968517  0.24986495     0.04900
H311        H  0.96078084  0.81549092  0.23007861     0.10000
H312        H  0.89134976  0.79737879  0.25051750     0.08800
C313        C  0.89206333  0.83931404  0.17594865     0.88200
C314        C  0.90776850  0.85238613  0.15857105    -0.52000
C315        C  0.89595748  0.85947112  0.13943522     0.11100
C316        C  0.87024561  0.85295018  0.13945088     0.22100
C317        C  0.87153481  0.85591565  0.18115430    -0.52800
C318        C  0.86020055  0.86293502  0.16177346     0.11200
C319        C  0.88128694  0.81934708  0.16213814    -0.52300
C320        C  0.87012405  0.82662070  0.14275182     0.11800
H321        H  0.92620155  0.85567111  0.16116485     0.16300
H322        H  0.86074858  0.85909817  0.12396702     0.02000
H323        H  0.86671473  0.86180551  0.19831672     0.16600
H324        H  0.88275766  0.80122676  0.16696550     0.16400
C325        C  0.82063759  0.79032207  0.05797089     0.88200
C326        C  0.83092205  0.80779684  0.04050052    -0.52000
C327        C  0.83528692  0.82886871  0.05009221     0.11100
C328        C  0.82881335  0.83050570  0.07553610     0.22100
C329        C  0.83833186  0.78952928  0.07784419    -0.52800
C330        C  0.84254990  0.81086910  0.08683131     0.11200
C331        C  0.79877659  0.80206399  0.06832095    -0.52300
C332        C  0.80316718  0.82325925  0.07742857     0.11800
H333        H  0.83562267  0.80345714  0.02286957     0.16300
H334        H  0.83257037  0.84764197  0.08323999     0.02000
H335        H  0.84732943  0.77395888  0.08349315     0.16600
H336        H  0.78166751  0.79408459  0.06903427     0.16400
C337        C  0.76844684  0.90609255  0.13247853     0.88200
C338        C  0.78608397  0.92197324  0.11995448    -0.52000
C339        C  0.80586563  0.91048740  0.11302917     0.11100
C340        C  0.80620083  0.88486784  0.11931283     0.22100
C341        C  0.76399979  0.88628037  0.11538801    -0.52800
C342        C  0.78399278  0.87528655  0.10851101     0.11200
C343        C  0.78207217  0.89498258  0.15244060    -0.52300
C344        C  0.80201438  0.88406743  0.14540015     0.11800
H345        H  0.78289109  0.94013958  0.11629252     0.16300
H346        H  0.82234704  0.87571727  0.11359557     0.02000
H347        H  0.74699083  0.88242804  0.10823362     0.16600
H348        H  0.77667605  0.89596774  0.17039699     0.16400
C349        C  0.89626752  0.91953503  0.04832580     0.88200
C350        C  0.88602067  0.89915821  0.03452086    -0.52000
C351        C  0.87348632  0.88418712  0.04786875     0.11100
C352        C  0.87228462  0.89081048  0.07339318     0.22100
C353        C  0.87490469  0.93069891  0.06057655    -0.52800
C354        C  0.86244729  0.91545830  0.07365429     0.11200
C355        C  0.91043586  0.90821877  0.06793316    -0.52300
C356        C  0.89767694  0.89325624  0.08102280     0.11800
H357        H  0.88823427  0.89700639  0.01605517     0.16300
H358        H  0.86203345  0.87857991  0.08416673     0.02000
H359        H  0.87010689  0.94883016  0.05900886     0.16600
H360        H  0.92851364  0.91232526  0.07156581     0.16400
N361        N  0.26147460  0.36073573  0.96569362    -0.25600
N362        N  0.27029646  0.37850941  0.97690824    -0.33400
C363        C  0.28060418  0.39279178  0.96178229     0.02800
C364        C  0.27821595  0.38373364  0.93996957     0.08800
C365        C  0.26607003  0.36328904  0.94302772    -0.04300
H366        H  0.28744717  0.40959608  0.96611954     0.09400
H367        H  0.25926658  0.35222609  0.92971920     0.10600
Cu368      Cu  0.26335272  0.38642111  0.01101935     0.44200
Cu369      Cu  0.23997377  0.33633371  0.98130892     0.42000
Cu370      Cu  0.21320686  0.35883312  0.03380749     0.43900
N371        N  0.24646750  0.39775378  0.04054267    -0.33000
N372        N  0.22674654  0.38857153  0.04792436    -0.27200
C373        C  0.21780744  0.40176404  0.06492722    -0.03300
C374        C  0.23285583  0.41991859  0.06861699     0.08900
C375        C  0.25085789  0.41686781  0.05286399     0.02700
H376        H  0.20125735  0.39875235  0.07345908     0.10300
H377        H  0.26507704  0.42861298  0.04938343     0.09400
N378        N  0.20755015  0.32602281  0.02109199    -0.34400
N379        N  0.21759730  0.31734703  0.00237768    -0.26600
C380        C  0.21223365  0.29474250  0.00089636    -0.01800
C381        C  0.19813921  0.28920985  0.01950080     0.06800
C382        C  0.19560235  0.30931130  0.03194484     0.04900
H383        H  0.21902396  0.28300081  0.98787731     0.10000
H384        H  0.18684521  0.31136845  0.04842029     0.08800
N385        N  0.33599303  0.01572490  0.20683162    -0.25600
N386        N  0.35256134  0.02161708  0.22129738    -0.33400
C387        C  0.36506833  0.00283371  0.22701419     0.02800
C388        C  0.35589610  0.98398421  0.21585944     0.08800
C389        C  0.33732890  0.99268303  0.20315667    -0.04300
H390        H  0.38086526  0.00318275  0.23711043     0.09400
H391        H  0.32706542  0.98342654  0.19065451     0.10600
Cu392      Cu  0.36092274  0.05536791  0.22838155     0.44200
Cu393      Cu  0.31625299  0.04132254  0.19072219     0.42000
Cu394      Cu  0.34043804  0.10186232  0.19338605     0.43900
N395        N  0.37622518  0.08738807  0.22784650    -0.33000
N396        N  0.37017893  0.10453433  0.21401185    -0.27200
C397        C  0.38696049  0.12086838  0.21480534    -0.03300
C398        C  0.40420807  0.11327450  0.22987077     0.08900
C399        C  0.39659802  0.09218915  0.23781167     0.02700
H400        H  0.38738971  0.13614639  0.20404764     0.10300
H401        H  0.40627975  0.08013971  0.24842841     0.09400
N402        N  0.30883577  0.09232805  0.17807623    -0.34400
N403        N  0.30035228  0.07103051  0.17760326    -0.26600
C404        C  0.27944188  0.07143576  0.16721556    -0.01800
C405        C  0.27448822  0.09385834  0.16080710     0.06800
C406        C  0.29340931  0.10670724  0.16784504     0.04900
H407        H  0.26866386  0.05639035  0.16446281     0.10000
H408        H  0.29579084  0.12514797  0.16574785     0.08800
N409        N  0.10257172  0.25789815  0.32574681    -0.25600
N410        N  0.08590760  0.26176724  0.34106032    -0.33400
C411        C  0.09528101  0.26449816  0.36190115     0.02800
C412        C  0.11924066  0.26214010  0.35987755     0.08800
C413        C  0.12337035  0.25817435  0.33658990    -0.04300
H414        H  0.08520667  0.26727989  0.37749425     0.09400
H415        H  0.14002234  0.25453762  0.32842846     0.10600
Cu416      Cu  0.05106374  0.26051591  0.33360040     0.44200
Cu417      Cu  0.09357806  0.25010242  0.29194904     0.42000
Cu418      Cu  0.02857204  0.24560035  0.27885892     0.43900
N419        N  0.01609675  0.25719925  0.32746602    -0.33000
N420        N  0.00679513  0.25231917  0.30732277    -0.27200
C421        C  0.98332599  0.25112182  0.31009689    -0.03300
C422        C  0.97813512  0.25519241  0.33322071     0.08900
C423        C  0.99931637  0.25881894  0.34351010     0.02700
H424        H  0.97118972  0.24662106  0.29667333     0.10300
H425        H  0.00240161  0.26207124  0.36157775     0.09400
N426        N  0.05629047  0.23795384  0.25614151    -0.34400
N427        N  0.07885626  0.23982070  0.26086828    -0.26600
C428        C  0.09143297  0.23259662  0.24256972    -0.01800
C429        C  0.07627736  0.22583512  0.22561795     0.06800
C430        C  0.05416085  0.22939573  0.23465198     0.04900
H431        H  0.11030714  0.23178959  0.24191953     0.10000
H432        H  0.03773351  0.22559845  0.22644304     0.08800
C433        C  0.18008412  0.22735041  0.04859061     0.88200
C434        C  0.16079479  0.21247046  0.03785159    -0.52000
C435        C  0.15657364  0.19271901  0.05004567     0.11100
C436        C  0.17180828  0.18976088  0.07148708     0.22100
C437        C  0.17194037  0.23191776  0.07335000    -0.52800
C438        C  0.16756029  0.21215126  0.08524476     0.11200
C439        C  0.20124855  0.21101810  0.05059111    -0.52300
C440        C  0.19701211  0.19077825  0.06218052     0.11800
H441        H  0.15154598  0.21703275  0.02220613     0.16300
H442        H  0.16763305  0.17480469  0.08150221     0.02000
H443        H  0.16925436  0.24907625  0.08058387     0.16600
H444        H  0.21737806  0.21399688  0.04108184     0.16400
C445        C  0.21807056  0.11716979  0.12347209     0.88200
C446        C  0.20394006  0.09833712  0.11073025    -0.52000
C447        C  0.18656107  0.10744172  0.09733788     0.11100
C448        C  0.18516001  0.13372413  0.09779398     0.22100
C449        C  0.22667519  0.13364300  0.10456985    -0.52800
C450        C  0.20950017  0.14258991  0.09090483     0.11200
C451        C  0.19967845  0.13099316  0.13713520    -0.52300
C452        C  0.18206740  0.13910018  0.12357731     0.11800
H453        H  0.20640886  0.07988858  0.11332186     0.16300
H454        H  0.17091123  0.13963136  0.08682633     0.02000
H455        H  0.24510399  0.13612431  0.10083595     0.16600
H456        H  0.19934110  0.13208483  0.15577938     0.16400
C457        C  0.10077561  0.19759368  0.16511716     0.88200
C458        C  0.08442570  0.18200082  0.15102654    -0.52000
C459        C  0.09494596  0.17305151  0.13182667     0.11100
C460        C  0.12023090  0.18047868  0.12858377     0.22100
C461        C  0.12245859  0.18238968  0.17025026    -0.52800
C462        C  0.13256549  0.17325980  0.15087390     0.11200
C463        C  0.10979781  0.21613635  0.14817543    -0.52300
C464        C  0.12053803  0.20688986  0.12924770     0.11800
H465        H  0.06669777  0.17777865  0.15621426     0.16300
H466        H  0.12807777  0.17378903  0.11236514     0.02000
H467        H  0.12945610  0.17966525  0.18739137     0.16600
H468        H  0.10950763  0.23455712  0.15176024     0.16400
C469        C  0.08993290  0.10413908  0.04723463     0.88200
C470        C  0.07743390  0.11439402  0.06869522    -0.52000
C471        C  0.09198045  0.12673450  0.08254931     0.11100
C472        C  0.11726095  0.12760782  0.07389483     0.22100
C473        C  0.10126603  0.12532412  0.03540891    -0.52800
C474        C  0.11542252  0.13753729  0.04962244     0.11200
C475        C  0.11078395  0.08993166  0.05666918    -0.52300
C476        C  0.12514123  0.10240579  0.07055417     0.11800
H477        H  0.05881161  0.11294254  0.07195098     0.16300
H478        H  0.12889478  0.13782991  0.08508980     0.02000
H479        H  0.09809067  0.13036979  0.01766063     0.16600
H480        H  0.11435260  0.07207423  0.05193322     0.16400
C481        C  0.94459242  0.06237827  0.90798946     0.88200
C482        C  0.96218805  0.04738978  0.89410510    -0.52000
C483        C  0.97568331  0.03349082  0.90767090     0.11100
C484        C  0.97029125  0.03549112  0.93344705     0.22100
C485        C  0.93047630  0.04480060  0.92246392    -0.52800
C486        C  0.94414366  0.03073984  0.93565323     0.11200
C487        C  0.95949830  0.07550169  0.92568774    -0.52300
C488        C  0.97284968  0.06121271  0.93900311     0.11800
H489        H  0.96388315  0.04786629  0.87544541     0.16300
H490        H  0.98129381  0.02399848  0.94434896     0.02000
H491        H  0.91160339  0.04348324  0.92213667     0.16600
H492        H  0.95930553  0.09420170  0.92759415     0.16400
C493        C  0.94321926  0.94745814  0.00750688     0.88200
C494        C  0.96151734  0.93576490  0.99153451    -0.52000
C495        C  0.97491959  0.95118180  0.97967485     0.11100
C496        C  0.96912721  0.97648485  0.98478494     0.22100
C497        C  0.95757872  0.96367499  0.02305418    -0.52800
C498        C  0.97114033  0.97878907  0.01089934     0.11200
C499        C  0.92925226  0.96379958  0.99146855    -0.52300
C500        C  0.94309508  0.97902871  0.97977729     0.11800
H501        H  0.96358368  0.91717043  0.98972752     0.16300
H502        H  0.98023226  0.98888994  0.97505078     0.02000
H503        H  0.95722945  0.96301703  0.04174346     0.16600
H504        H  0.91041775  0.96341291  0.98968556     0.16400
C505        C  0.05819884  0.95887235  0.90661163     0.88200
C506        C  0.07025873  0.97443293  0.92459278    -0.52000
C507        C  0.05488134  0.98672694  0.93790810     0.11100
C508        C  0.02928432  0.98238635  0.93234253     0.22100
C509        C  0.04135613  0.94367773  0.92086664    -0.52800
C510        C  0.02631647  0.95623158  0.93430145     0.11200
C511        C  0.04222757  0.97557250  0.89291273    -0.52300
C512        C  0.02704212  0.98769260  0.90667623     0.11800
H513        H  0.08905749  0.97565414  0.92651435     0.16300
H514        H  0.01688507  0.99241444  0.94337212     0.02000
H515        H  0.04146787  0.92489577  0.92044848     0.16600
H516        H  0.04277493  0.97743462  0.87431279     0.16400
C517        C  0.04677005  0.05887501  0.02068910     0.88200
C518        C  0.03058638  0.04085142  0.03225844    -0.52000
C519        C  0.01828249  0.02805144  0.01681945     0.11100
C520        C  0.02327037  0.03411251  0.99166218     0.22100
C521        C  0.06224354  0.04463570  0.00390792    -0.52800
C522        C  0.04970616  0.03171550  0.98880923     0.11200
C523        C  0.03035709  0.07325978  0.00502707    -0.52300
C524        C  0.01825160  0.06001522  0.98979727     0.11800
H525        H  0.02888556  0.03862388  0.05076511     0.16300
H526        H  0.01324413  0.02351322  0.97922840     0.02000
H527        H  0.08119021  0.04470765  0.00409591     0.16600
H528        H  0.02864216  0.09194915  0.00584167     0.16400
N529        N  0.84695910  0.73014068  0.43993009    -0.25600
N530        N  0.86795394  0.73833544  0.44402832    -0.33400
C531        C  0.88001554  0.73995771  0.42430637     0.02800
C532        C  0.86603156  0.73249209  0.40660727     0.08800
C533        C  0.84498499  0.72659686  0.41701849    -0.04300
H534        H  0.89769790  0.74630620  0.42300802     0.09400
H535        H  0.82972173  0.71967767  0.40869154     0.10600
Cu536      Cu  0.87987809  0.74717633  0.47588936     0.44200
Cu537      Cu  0.82408295  0.72338523  0.46725008     0.42000
Cu538      Cu  0.84782313  0.73726006  0.52659755     0.43900
N539        N  0.89201374  0.75645254  0.50755174    -0.33000
N540        N  0.88075377  0.75289407  0.52712578    -0.27200
C541        C  0.89420662  0.76056136  0.54458282    -0.03300
C542        C  0.91472912  0.76931666  0.53508761     0.08900
C543        C  0.91254682  0.76638693  0.51169654     0.02700
H544        H  0.88951565  0.75967086  0.56263721     0.10300
H545        H  0.92521470  0.77085819  0.49853305     0.09400
N546        N  0.81572008  0.72149864  0.51949747    -0.34400
N547        N  0.80740110  0.71679646  0.49873958    -0.26600
C548        C  0.78627245  0.70694529  0.50113283    -0.01800
C549        C  0.78105350  0.70536167  0.52431594     0.06800
C550        C  0.79999068  0.71470677  0.53546870     0.04900
H551        H  0.77543835  0.70150209  0.48697648     0.10000
H552        H  0.80212136  0.71665123  0.55386555     0.08800
N553        N  0.50922179  0.85712410  0.71541192    -0.25600
N554        N  0.51883157  0.87421915  0.72706626    -0.33400
C555        C  0.50193122  0.88789831  0.73573575     0.02800
C556        C  0.48053511  0.87942834  0.72920824     0.08800
C557        C  0.48572892  0.85972240  0.71638619    -0.04300
H558        H  0.50506789  0.90401079  0.74462217     0.09400
H559        H  0.47352091  0.84903057  0.70717364     0.10600
Cu560      Cu  0.55401368  0.88268724  0.72669968     0.44200
Cu561      Cu  0.52915610  0.83327582  0.69616422     0.42000
Cu562      Cu  0.58670820  0.85615136  0.68206314     0.43900
N563        N  0.58669280  0.89450329  0.71666099    -0.33000
N564        N  0.59801584  0.88546731  0.69890341    -0.27200
C565        C  0.61653885  0.89870725  0.69379381    -0.03300
C566        C  0.61717465  0.91674014  0.70934936     0.08900
C567        C  0.59794375  0.91360846  0.72360481     0.02700
H568        H  0.62807082  0.89598918  0.67920002     0.10300
H569        H  0.59146098  0.92544185  0.73660927     0.09400
N570        N  0.57535454  0.82381318  0.67204562    -0.34400
N571        N  0.55483829  0.81488381  0.67756901    -0.26600
C572        C  0.55446955  0.79269604  0.67031994    -0.01800
C573        C  0.57570339  0.78768986  0.65978696     0.06800
C574        C  0.58843756  0.80774747  0.66117942     0.04900
H575        H  0.54014594  0.78092597  0.67314698     0.10000
H576        H  0.60629567  0.81023322  0.65558343     0.08800
N577        N  0.76038204  0.52012254  0.80028400    -0.25600
N578        N  0.77217228  0.53240159  0.81540883    -0.33400
C579        C  0.78349376  0.51804360  0.82970530     0.02800
C580        C  0.77874621  0.49559109  0.82346966     0.08800
C581        C  0.76405149  0.49744601  0.80462802    -0.04300
H582        H  0.79280042  0.52356304  0.84486363     0.09400
H583        H  0.75515671  0.48351159  0.79600988     0.10600
Cu584      Cu  0.76746973  0.56733415  0.82135251     0.44200
Cu585      Cu  0.73706246  0.53537381  0.77730156     0.42000
Cu586      Cu  0.71492473  0.59058841  0.79947422     0.43900
N587        N  0.75087587  0.59547309  0.83619993    -0.33000
N588        N  0.73024523  0.60291070  0.82925662    -0.27200
C589        C  0.72156721  0.61787031  0.84492104    -0.03300
C590        C  0.73767278  0.62010663  0.86240643     0.08900
C591        C  0.75607742  0.60567183  0.85629240     0.02700
H592        H  0.70446078  0.62587173  0.84406555     0.10300
H593        H  0.77117224  0.60139855  0.86659103     0.09400
N594        N  0.70738792  0.57758549  0.76710175    -0.34400
N595        N  0.71561592  0.55782286  0.75873143    -0.26600
C596        C  0.70958097  0.55621067  0.73639321    -0.01800
C597        C  0.69697776  0.57583492  0.73065819     0.06800
C598        C  0.69592515  0.58897993  0.75040811     0.04900
H599        H  0.71492996  0.54236834  0.72497004     0.10000
H600        H  0.68849483  0.60614273  0.75220947     0.08800
C601        C  0.71958300  0.68241392  0.55378311     0.88200
C602        C  0.72271285  0.67020030  0.57724287    -0.52000
C603        C  0.70200577  0.66375264  0.58700957     0.11100
C604        C  0.68060846  0.66960929  0.57255409     0.22100
C605        C  0.70564187  0.66527614  0.53888605    -0.52800
C606        C  0.68513602  0.65873419  0.54903019     0.11200
C607        C  0.70246019  0.70266298  0.55876407    -0.52300
C608        C  0.68197893  0.69557812  0.56858445     0.11800
H609        H  0.73938754  0.66808147  0.58579735     0.16300
H610        H  0.66390566  0.66410091  0.58060968     0.02000
H611        H  0.71129383  0.65918702  0.52205786     0.16600
H612        H  0.70617398  0.72067760  0.55495918     0.16400
C613        C  0.60649269  0.72832417  0.63433070     0.88200
C614        C  0.62777073  0.73557365  0.61971834    -0.52000
C615        C  0.63993860  0.71727931  0.61083772     0.11100
C616        C  0.62994631  0.69364191  0.61753930     0.22100
C617        C  0.59197385  0.71249358  0.61853295    -0.52800
C618        C  0.60453171  0.69425573  0.60982444     0.11200
C619        C  0.61660076  0.71211522  0.65296199    -0.52300
C620        C  0.62868911  0.69373523  0.64399389     0.11800
H621        H  0.63281167  0.75342134  0.61681856     0.16300
H622        H  0.64007769  0.67884863  0.61036464     0.02000
H623        H  0.57359738  0.71529342  0.61488552     0.16600
H624        H  0.61400056  0.71463168  0.67133541     0.16400
C625        C  0.67585854  0.60246286  0.66861217     0.88200
C626        C  0.69636098  0.61135688  0.65376545    -0.52000
C627        C  0.68920865  0.62240822  0.63426444     0.11100
C628        C  0.66265914  0.62293901  0.63126351     0.22100
C629        C  0.66003721  0.62387416  0.67292732    -0.52800
C630        C  0.65304439  0.63433128  0.65301355     0.11200
C631        C  0.66166248  0.58676771  0.65250529    -0.52300
C632        C  0.65484852  0.59785416  0.63290259     0.11800
H633        H  0.71458356  0.60970140  0.65853398     0.16300
H634        H  0.65690598  0.63169124  0.61522176     0.02000
H635        H  0.65414355  0.62946935  0.68984530     0.16600
H636        H  0.65692848  0.56904941  0.65651595     0.16400
C637        C  0.59015363  0.60426869  0.54625080     0.88200
C638        C  0.58065555  0.62637889  0.55821501    -0.52000
C639        C  0.59688641  0.63717458  0.57149170     0.11100
C640        C  0.62065920  0.62494658  0.57174764     0.22100
C641        C  0.61205018  0.61242719  0.53280253    -0.52800
C642        C  0.62799800  0.62309582  0.54644002     0.11200
C643        C  0.59963765  0.58908290  0.56600614    -0.52300
C644        C  0.61562156  0.60007450  0.57922554     0.11800
H645        H  0.56299387  0.63297215  0.55611265     0.16300
H646        H  0.63368302  0.63380756  0.58262448     0.02000
H647        H  0.61461681  0.60998811  0.51442277     0.16600
H648        H  0.59419204  0.57141092  0.56918262     0.16400
N649        N  0.16526533  0.26361865  0.45049305    -0.25600
N650        N  0.15113542  0.24702182  0.45740987    -0.33400
C651        C  0.13748695  0.24064712  0.43997082     0.02800
C652        C  0.14328431  0.25354545  0.42086917     0.08800
C653        C  0.16107344  0.26804693  0.42801360    -0.04300
H654        H  0.12307871  0.22874026  0.44160109     0.09400
H655        H  0.16890696  0.28196399  0.41826219     0.10600
Cu656      Cu  0.14622633  0.23743792  0.49108673     0.44200
Cu657      Cu  0.18628823  0.28067399  0.47423422     0.42000
Cu658      Cu  0.16793765  0.27146699  0.53581555     0.43900
N659        N  0.13136691  0.23782889  0.52328502    -0.33000
N660        N  0.13863342  0.25116256  0.54015436    -0.27200
C661        C  0.12228798  0.25151118  0.55696951    -0.03300
C662        C  0.10385047  0.23785126  0.54994946     0.08900
C663        C  0.11027198  0.22949776  0.52862031     0.02700
H664        H  0.12270713  0.26271312  0.57186498     0.10300
H665        H  0.09937305  0.22007284  0.51678996     0.09400
N666        N  0.19757931  0.28880915  0.52493112    -0.34400
N667        N  0.20423250  0.29221070  0.50326109    -0.26600
C668        C  0.22471349  0.30353094  0.50321221    -0.01800
C669        C  0.23103830  0.30730514  0.52578770     0.06800
C670        C  0.21357834  0.29781768  0.53907056     0.04900
H671        H  0.23435697  0.30841203  0.48787791     0.10000
H672        H  0.21262843  0.29726942  0.55768827     0.08800
N673        N  0.50542618  0.15948551  0.69838966    -0.25600
N674        N  0.49971184  0.14147492  0.71114345    -0.33400
C675        C  0.51903939  0.12951769  0.71667287     0.02800
C676        C  0.53812068  0.14061164  0.70708916     0.08800
C677        C  0.52885407  0.15968583  0.69571988    -0.04300
H678        H  0.51905287  0.11368130  0.72660469     0.09400
H679        H  0.53834650  0.17221639  0.68553982     0.10600
Cu680      Cu  0.46572026  0.13283060  0.71841775     0.44200
Cu681      Cu  0.47959087  0.18092679  0.68457035     0.42000
Cu682      Cu  0.41808936  0.15872436  0.68808621     0.43900
N683        N  0.43279581  0.11911039  0.71797447    -0.33000
N684        N  0.41514037  0.12719223  0.70577431    -0.27200
C685        C  0.39794532  0.11123653  0.70605703    -0.03300
C686        C  0.40553618  0.09243283  0.71909080     0.08900
C687        C  0.42750534  0.09824766  0.72637068     0.02700
H688        H  0.38189657  0.11261062  0.69643111     0.10300
H689        H  0.43960944  0.08726096  0.73563225     0.09400
N690        N  0.42805425  0.19100084  0.67470595    -0.34400
N691        N  0.44978705  0.19876667  0.67365663    -0.26600
C692        C  0.44955510  0.22040205  0.66502312    -0.01800
C693        C  0.42676071  0.22655942  0.66040605     0.06800
C694        C  0.41356390  0.20761675  0.66671056     0.04900
H695        H  0.46488449  0.23099218  0.66261985     0.10000
H696        H  0.39476679  0.20614281  0.66592355     0.08800
N697        N  0.26024461  0.50630101  0.81036496    -0.25600
N698        N  0.25774709  0.49939893  0.83190658    -0.33400
C699        C  0.24912248  0.51676223  0.84463967     0.02800
C700        C  0.24583270  0.53582122  0.83054148     0.08800
C701        C  0.25327285  0.52862766  0.80886747    -0.04300
H702        H  0.24595373  0.51549427  0.86297463     0.09400
H703        H  0.25346508  0.53879556  0.79321306     0.10600
Cu704      Cu  0.26627117  0.46702336  0.84390061     0.44200
Cu705      Cu  0.27293901  0.48368339  0.78522430     0.42000
Cu706      Cu  0.28663693  0.42347082  0.80654032     0.43900
N707        N  0.27476409  0.43442046  0.85526184    -0.33000
N708        N  0.28194519  0.41757031  0.84159043    -0.27200
C709        C  0.28515174  0.39827847  0.85433371    -0.03300
C710        C  0.28004282  0.40360521  0.87711553     0.08900
C711        C  0.27341244  0.42663471  0.87695167     0.02700
H712        H  0.29082258  0.38172965  0.84757935     0.10300
H713        H  0.26740959  0.43690377  0.89140657     0.09400
N714        N  0.29012758  0.43513070  0.77275506    -0.34400
N715        N  0.28542778  0.45629272  0.76513155    -0.26600
C716        C  0.29030406  0.45722418  0.74240891    -0.01800
C717        C  0.29833624  0.43573923  0.73557409     0.06800
C718        C  0.29806179  0.42219727  0.75510266     0.04900
H719        H  0.28839780  0.47249893  0.73177107     0.10000
H720        H  0.30353817  0.40429659  0.75649655     0.08800
C721        C  0.28745142  0.33840592  0.55537794     0.88200
C722        C  0.27922620  0.35347341  0.57583511    -0.52000
C723        C  0.29726536  0.36301831  0.58758535     0.11100
C724        C  0.32137779  0.35707701  0.57760221     0.22100
C725        C  0.30275682  0.35436862  0.54029411    -0.52800
C726        C  0.32056525  0.36405135  0.55232607     0.11200
C727        C  0.30468524  0.32060472  0.56578531    -0.52300
C728        C  0.32258082  0.33077470  0.57728583     0.11800
H729        H  0.26109357  0.35553521  0.58107041     0.16300
H730        H  0.33603377  0.36505364  0.58711407     0.02000
H731        H  0.30027415  0.35702004  0.52196022     0.16600
H732        H  0.30357765  0.30205367  0.56319065     0.16400
C733        C  0.40066767  0.28879198  0.63647296     0.88200
C734        C  0.37667586  0.28518411  0.62529330    -0.52000
C735        C  0.36685478  0.30513597  0.61734940     0.11100
C736        C  0.38155432  0.32672307  0.62181034     0.22100
C737        C  0.41551605  0.30170696  0.61812592    -0.52800
C738        C  0.40520685  0.32178670  0.61070301     0.11200
C739        C  0.39630676  0.30679157  0.65566474    -0.52300
C740        C  0.38633355  0.32673578  0.64767426     0.11800
H741        H  0.36853860  0.26839923  0.62330842     0.16300
H742        H  0.37342103  0.34298978  0.61553622     0.02000
H743        H  0.43258850  0.29588734  0.61217508     0.16600
H744        H  0.40152789  0.30441923  0.67346000     0.16400
C745        C  0.32617873  0.40791860  0.67687486     0.88200
C746        C  0.34066416  0.38728219  0.68595116    -0.52000
C747        C  0.35143968  0.37493580  0.66894000     0.11100
C748        C  0.34649684  0.38413576  0.64470332     0.22100
C749        C  0.34310826  0.42227971  0.66186567    -0.52800
C750        C  0.35360416  0.40954208  0.64484622     0.11200
C751        C  0.30889976  0.39708418  0.65980117    -0.52300
C752        C  0.31986556  0.38437586  0.64308070     0.11800
H753        H  0.34152965  0.38238200  0.70398839     0.16300
H754        H  0.35496988  0.37402062  0.63072286     0.02000
H755        H  0.34599051  0.44067144  0.66411238     0.16600
H756        H  0.29005097  0.39813853  0.66158607     0.16400
C757        C  0.41692800  0.41568822  0.55381311     0.88200
C758        C  0.42752272  0.39255187  0.56251896    -0.52000
C759        C  0.41194818  0.37919158  0.57439880     0.11100
C760        C  0.38762988  0.39010216  0.57672152     0.22100
C761        C  0.39534114  0.40847676  0.53979475    -0.52800
C762        C  0.38002978  0.39531354  0.55201030     0.11200
C763        C  0.40690336  0.42745373  0.57573659    -0.52300
C764        C  0.39162911  0.41378558  0.58769940     0.11800
H765        H  0.44548271  0.38725054  0.55945754     0.16300
H766        H  0.37512708  0.37918052  0.58651782     0.02000
H767        H  0.39236693  0.41347673  0.52201543     0.16600
H768        H  0.41172129  0.44466718  0.58135460     0.16400
N769        N  0.49693090  0.16263255  0.22963564    -0.25600
N770        N  0.50065517  0.14010138  0.23080590    -0.33400
C771        C  0.48015273  0.12916257  0.22932184     0.02800
C772        C  0.46253592  0.14557732  0.22711566     0.08800
C773        C  0.47385033  0.16666041  0.22716855    -0.04300
H774        H  0.47830235  0.11055459  0.22963596     0.09400
H775        H  0.46587721  0.18364384  0.22604392     0.10600
Cu776      Cu  0.53348497  0.12515285  0.23440095     0.44200
Cu777      Cu  0.52400553  0.18591506  0.23301481     0.42000
Cu778      Cu  0.58383908  0.16140290  0.23936470     0.43900
N779        N  0.56739134  0.11248236  0.23669301    -0.33000
N780        N  0.58611798  0.12558685  0.23811459    -0.27200
C781        C  0.60530287  0.11191701  0.23793462    -0.03300
C782        C  0.59824606  0.08911511  0.23641413     0.08900
C783        C  0.57406607  0.09021475  0.23566621     0.02700
H784        H  0.62306106  0.11813336  0.23842287     0.10300
H785        H  0.56210530  0.07600932  0.23354070     0.09400
N786        N  0.57500920  0.19615691  0.24259821    -0.34400
N787        N  0.55364289  0.20479602  0.24041867    -0.26600
C788        C  0.55390690  0.22741233  0.24571866    -0.01800
C789        C  0.57639189  0.23317538  0.25146250     0.06800
C790        C  0.58938744  0.21313101  0.24927212     0.04900
H791        H  0.53865774  0.23855678  0.24624332     0.10000
H792        H  0.60769828  0.21079043  0.25316938     0.08800
N793        N  0.70891235  0.52082112  0.10072747    -0.25600
N794        N  0.70305890  0.51743850  0.07904579    -0.33400
C795        C  0.70345226  0.53765055  0.06774143     0.02800
C796        C  0.70995970  0.55479659  0.08296608     0.08800
C797        C  0.71344652  0.54348223  0.10374827    -0.04300
H798        H  0.70061858  0.53937333  0.04942464     0.09400
H799        H  0.71929278  0.55105831  0.11970211     0.10600
Cu800      Cu  0.69905624  0.48526444  0.06441736     0.44200
Cu801      Cu  0.71058867  0.49349926  0.12404161     0.42000
Cu802      Cu  0.70907993  0.43481506  0.09794153     0.43900
N803        N  0.70602988  0.45336800  0.05002000    -0.33000
N804        N  0.71093824  0.43458086  0.06205900    -0.27200
C805        C  0.71833279  0.41784770  0.04744973    -0.03300
C806        C  0.71795318  0.42679745  0.02522769     0.08900
C807        C  0.70999729  0.44923109  0.02762596     0.02700
H808        H  0.72452504  0.40095575  0.05272581     0.10300
H809        H  0.70865970  0.46214052  0.01418469     0.09400
N810        N  0.70565670  0.44187800  0.13307291    -0.34400
N811        N  0.70664013  0.46276939  0.14239149    -0.26600
C812        C  0.70320589  0.46094444  0.16529281    -0.01800
C813        C  0.69993701  0.43792574  0.17057551     0.06800
C814        C  0.70149181  0.42631026  0.14985193     0.04900
H815        H  0.70260220  0.47538203  0.17710335     0.10000
H816        H  0.69936927  0.40794414  0.14708373     0.08800
N817        N  0.84819814  0.27106762  0.45917499    -0.25600
N818        N  0.86825313  0.26215258  0.45198598    -0.33400
C819        C  0.88142346  0.25657986  0.47009222     0.02800
C820        C  0.86943987  0.26239828  0.49008282     0.08800
C821        C  0.84825391  0.27142982  0.48248872    -0.04300
H822        H  0.89885590  0.24950880  0.46841018     0.09400
H823        H  0.83434863  0.27853380  0.49308907     0.10600
Cu824      Cu  0.87960354  0.26011711  0.41834608     0.44200
Cu825      Cu  0.82334052  0.28327856  0.43563297     0.42000
Cu826      Cu  0.84503254  0.28156018  0.37424876     0.43900
N827        N  0.89184944  0.26208328  0.38499079    -0.33000
N828        N  0.87914027  0.27031580  0.36798022    -0.27200
C829        C  0.89225567  0.27040367  0.34856150    -0.03300
C830        C  0.91431084  0.26179857  0.35375342     0.08900
C831        C  0.91327736  0.25672996  0.37711995     0.02700
H832        H  0.88638923  0.27675009  0.33204220     0.10300
H833        H  0.92706965  0.25008768  0.38792793     0.09400
N834        N  0.81200703  0.29270160  0.38506790    -0.34400
N835        N  0.80415265  0.29363606  0.40661587    -0.26600
C836        C  0.78229467  0.30256640  0.40650439    -0.01800
C837        C  0.77629739  0.30738768  0.38393826     0.06800
C838        C  0.79541797  0.30089842  0.37088696     0.04900
H839        H  0.77169513  0.30553174  0.42171747     0.10000
H840        H  0.79731250  0.30231457  0.35239973     0.08800
C841        C  0.71683015  0.33519100  0.35492916     0.88200
C842        C  0.72248211  0.35146443  0.33439395    -0.52000
C843        C  0.70291349  0.35983963  0.32378960     0.11100
C844        C  0.68018239  0.35100097  0.33421279     0.22100
C845        C  0.70041192  0.34947990  0.37077338    -0.52800
C846        C  0.68117250  0.35763808  0.35955058     0.11200
C847        C  0.70131031  0.31606647  0.34483267    -0.52300
C848        C  0.68220972  0.32454916  0.33367769     0.11800
H849        H  0.74001444  0.35668531  0.32955433     0.16300
H850        H  0.66442376  0.35794898  0.32549063     0.02000
H851        H  0.70381343  0.35298856  0.38879831     0.16600
H852        H  0.70528990  0.29772438  0.34598121     0.16400
C853        C  0.60053322  0.29552531  0.27436298     0.88200
C854        C  0.62415595  0.29325252  0.28683993    -0.52000
C855        C  0.63332924  0.31415745  0.29256427     0.11100
C856        C  0.61815118  0.33485473  0.28578334     0.22100
C857        C  0.58470987  0.30967762  0.29082342    -0.52800
C858        C  0.59430296  0.33037623  0.29669951     0.11200
C859        C  0.60538363  0.31155307  0.25364906    -0.52300
C860        C  0.61465792  0.33219593  0.25992632     0.11800
H861        H  0.63322047  0.27695278  0.28970773     0.16300
H862        H  0.62574513  0.35176850  0.29066871     0.02000
H863        H  0.56796339  0.30383530  0.29732626     0.16600
H864        H  0.60281336  0.30663231  0.23579373     0.16400
C865        C  0.68113717  0.40679024  0.23159901     0.88200
C866        C  0.66699134  0.38524806  0.22536052    -0.52000
C867        C  0.65933188  0.37337364  0.24412260     0.11100
C868        C  0.66624862  0.38405378  0.26720157     0.22100
C869        C  0.66501930  0.42118007  0.24762825    -0.52800
C870        C  0.65730447  0.40899964  0.26634083     0.11200
C871        C  0.70097125  0.39766152  0.24718836    -0.52300
C872        C  0.69294077  0.38590973  0.26608364     0.11800
H873        H  0.66402863  0.37948283  0.20783167     0.16300
H874        H  0.65975275  0.37420124  0.28234250     0.02000
H875        H  0.66028058  0.43911954  0.24450402     0.16600
H876        H  0.71939389  0.40030274  0.24368572     0.16400
C877        C  0.59183904  0.42159131  0.35591041     0.88200
C878        C  0.61168496  0.41128049  0.37066052    -0.52000
C879        C  0.62523667  0.39567986  0.35903259     0.11100
C880        C  0.61782972  0.39172639  0.33406086     0.22100
C881        C  0.60424093  0.43161704  0.33436511    -0.52800
C882        C  0.61774607  0.41572560  0.32295066     0.11200
C883        C  0.57822972  0.40054088  0.34679223    -0.52300
C884        C  0.59209743  0.38493616  0.33550472     0.11800
H885        H  0.61484371  0.41612360  0.38842854     0.16300
H886        H  0.62889754  0.37896147  0.32466263     0.02000
H887        H  0.60222095  0.44937135  0.32854756     0.16600
H888        H  0.55952101  0.39835089  0.34888842     0.16400
C889        C  0.56100409  0.55947394  0.50509876     0.88200
C890        C  0.54398676  0.54513323  0.52009399    -0.52000
C891        C  0.52886478  0.53228007  0.50740102     0.11100
C892        C  0.53203319  0.53483632  0.48137172     0.22100
C893        C  0.57301230  0.54164489  0.48902925    -0.52800
C894        C  0.55765287  0.52893229  0.47662809     0.11200
C895        C  0.54517130  0.57396074  0.48902507    -0.52300
C896        C  0.52994350  0.56078012  0.47681746     0.11800
H897        H  0.54390078  0.54525168  0.53880229     0.16300
H898        H  0.51963990  0.52430583  0.47117720     0.02000
H899        H  0.59181745  0.53954544  0.48736723     0.16600
H900        H  0.54585762  0.59266934  0.48758882     0.16400
C901        C  0.44957931  0.56671289  0.40130243     0.88200
C902        C  0.46682549  0.57873432  0.41770577    -0.52000
C903        C  0.47962442  0.56363762  0.43058299     0.11100
C904        C  0.47406687  0.53823059  0.42625956     0.22100
C905        C  0.46501062  0.54981758  0.38701030    -0.52800
C906        C  0.47759027  0.53482869  0.40036594     0.11200
C907        C  0.43467779  0.55107600  0.41717062    -0.52300
C908        C  0.44776163  0.53629332  0.43026272     0.11800
H909        H  0.46887164  0.59735079  0.41883650     0.16300
H910        H  0.48454761  0.52608743  0.43697836     0.02000
H911        H  0.46577032  0.54965097  0.36832983     0.16600
H912        H  0.41575650  0.55204776  0.41830172     0.16400
C913        C  0.44379571  0.46200263  0.51165033     0.88200
C914        C  0.45893125  0.44675907  0.49536606    -0.52000
C915        C  0.47336615  0.45932534  0.48140424     0.11100
C916        C  0.47131686  0.48545414  0.48465108     0.22100
C917        C  0.46141002  0.47724057  0.52464034    -0.52800
C918        C  0.47574719  0.48945592  0.51026908     0.11200
C919        C  0.43084860  0.47887133  0.49528912    -0.52300
C920        C  0.44547085  0.49095990  0.48114213     0.11800
H921        H  0.45824148  0.42802008  0.49492681     0.16300
H922        H  0.48310700  0.49546467  0.47310173     0.02000
H923        H  0.46246332  0.47814476  0.54328972     0.16600
H924        H  0.41199039  0.48070555  0.49465864     0.16400
C925        C  0.54941857  0.45026357  0.40078402     0.88200
C926        C  0.56510243  0.46590152  0.41554518    -0.52000
C927        C  0.55272778  0.48119338  0.42877244     0.11100
C928        C  0.52627108  0.47966105  0.42609680     0.22100
C929        C  0.53254817  0.43884100  0.41825168    -0.52800
C930        C  0.52047154  0.45444072  0.43138478     0.11200
C931        C  0.53389230  0.46709929  0.38677853    -0.52300
C932        C  0.52197498  0.48255841  0.40028472     0.11800
H933        H  0.58403466  0.46469997  0.41574939     0.16300
H934        H  0.51639505  0.49224315  0.43697760     0.02000
H935        H  0.53040101  0.42027439  0.42005145     0.16600
H936        H  0.53264265  0.46690099  0.36812067     0.16400
N937        N  0.24704666  0.50868386  0.12048226    -0.25600
N938        N  0.22858506  0.51156587  0.10727306    -0.33400
C939        C  0.22428143  0.49175049  0.09610724     0.02800
C940        C  0.24100182  0.47565508  0.10246564     0.08800
C941        C  0.25524523  0.48698226  0.11782462    -0.04300
H942        H  0.21144613  0.48993664  0.08266306     0.09400
H943        H  0.27110273  0.48036270  0.12550919     0.10600
Cu944      Cu  0.21476197  0.54364988  0.09973965     0.44200
Cu945      Cu  0.26154705  0.53561261  0.13880176     0.42000
Cu946      Cu  0.24852495  0.59333053  0.11649968     0.43900
N947        N  0.21323266  0.57516819  0.08322895    -0.33000
N948        N  0.22632465  0.59315457  0.08833050    -0.27200
C949        C  0.22430191  0.60902149  0.07141023    -0.03300
C950        C  0.20927850  0.60036820  0.05495460     0.08900
C951        C  0.20261805  0.57900351  0.06308110     0.02700
H952        H  0.23424816  0.62482437  0.07044464     0.10300
H953        H  0.19229734  0.56633146  0.05408447     0.09400
N954        N  0.26797797  0.58695673  0.14597918    -0.34400
N955        N  0.27242335  0.56597944  0.15407993    -0.26600
C956        C  0.28419709  0.56778604  0.17392305    -0.01800
C957        C  0.28736838  0.59092151  0.17842573     0.06800
C958        C  0.27690243  0.60267180  0.16049780     0.04900
H959        H  0.28954344  0.55331635  0.18453264     0.10000
H960        H  0.27531824  0.62124627  0.15844339     0.08800
N961        N  0.14618695  0.75845053  0.44834484    -0.25600
N962        N  0.13179849  0.77099937  0.43560672    -0.33400
C963        C  0.11793334  0.78377874  0.44937874     0.02800
C964        C  0.12353000  0.77918187  0.47198132     0.08800
C965        C  0.14167887  0.76307311  0.47078033    -0.04300
H966        H  0.10357970  0.79438753  0.44337626     0.09400
H967        H  0.14992446  0.75429215  0.48504447     0.10600
Cu968      Cu  0.12657114  0.76675026  0.40068102     0.44200
Cu969      Cu  0.16883888  0.73348057  0.43397330     0.42000
Cu970      Cu  0.14850465  0.71435529  0.37791636     0.43900
N971        N  0.11456974  0.75281640  0.37025740    -0.33000
N972        N  0.12199536  0.73259387  0.36252161    -0.27200
C973        C  0.10842378  0.72584570  0.34506125    -0.03300
C974        C  0.09170486  0.74273483  0.34155084     0.08900
C975        C  0.09605605  0.75962975  0.35781800     0.02700
H976        H  0.10983836  0.70931184  0.33644598     0.10300
H977        H  0.08532172  0.77460856  0.36171591     0.09400
N978        N  0.17865951  0.70253897  0.39289002    -0.34400
N979        N  0.18699668  0.70991841  0.41274374    -0.26600
C980        C  0.20921198  0.70225028  0.41463800    -0.01800
C981        C  0.21475622  0.68948912  0.39512830     0.06800
C982        C  0.19503370  0.69003998  0.38181427     0.04900
H983        H  0.22104922  0.70728823  0.42817265     0.10000
H984        H  0.19348329  0.68394097  0.36427275     0.08800
N985        N  0.47847776  0.85720554  0.21115234    -0.25600
N986        N  0.47079297  0.87614142  0.20085669    -0.33400
C987        C  0.48887133  0.88989081  0.19592089     0.02800
C988        C  0.50901888  0.87918546  0.20331013     0.08800
C989        C  0.50191987  0.85837425  0.21288102    -0.04300
H990        H  0.48726920  0.90718606  0.18893966     0.09400
H991        H  0.51265814  0.84600369  0.22205017     0.10600
Cu992      Cu  0.43613965  0.88534058  0.19827061     0.44200
Cu993      Cu  0.45555577  0.83321943  0.22522654     0.42000
Cu994      Cu  0.39297366  0.85181617  0.22631342     0.43900
N995        N  0.40243215  0.89698233  0.20326920    -0.33000
N996        N  0.38602625  0.88483501  0.21368337    -0.27200
C997        C  0.36683814  0.89829278  0.21631432    -0.03300
C998        C  0.37173927  0.92000725  0.20743582     0.08900
C999        C  0.39442382  0.91843898  0.19925743     0.02700
H1000       H  0.35115280  0.89317828  0.22541822     0.10300
H1001       H  0.40478171  0.93221255  0.19189761     0.09400
N1002       N  0.40583210  0.82045902  0.23878011    -0.34400
N1003       N  0.42805253  0.81385902  0.23844997    -0.26600
C1004       C  0.42996926  0.79314198  0.24888347    -0.01800
C1005       C  0.40803786  0.78651912  0.25608164     0.06800
C1006       C  0.39313408  0.80408476  0.24943189     0.04900
H1007       H  0.44624561  0.78388439  0.25152067     0.10000
H1008       H  0.37452256  0.80520298  0.25260182     0.08800
C1009       C  0.27775500  0.67755072  0.36353093     0.88200
C1010       C  0.29258587  0.69960956  0.36379760    -0.52000
C1011       C  0.31330398  0.69803319  0.35184949     0.11100
C1012       C  0.31638114  0.67434109  0.34025345     0.22100
C1013       C  0.27396031  0.67206991  0.33800474    -0.52800
C1014       C  0.29433426  0.67040718  0.32589181     0.11200
C1015       C  0.29414523  0.65835538  0.37235952    -0.52300
C1016       C  0.31444483  0.65680135  0.36003342     0.11800
H1017       H  0.28814984  0.71436900  0.37460585     0.16300
H1018       H  0.33220147  0.67224992  0.32995615     0.02000
H1019       H  0.25695813  0.66940685  0.33034272     0.16600
H1020       H  0.29016852  0.64724781  0.38695190     0.16400
C1021       C  0.38797116  0.72937287  0.29309315     0.88200
C1022       C  0.37652702  0.71173732  0.27728475    -0.52000
C1023       C  0.36890620  0.69276417  0.28886402     0.11100
C1024       C  0.37241312  0.69369613  0.31508201     0.22100
C1025       C  0.36940994  0.73517637  0.31143234    -0.52800
C1026       C  0.36102027  0.71648433  0.32334636     0.11200
C1027       C  0.40721307  0.71556849  0.30590039    -0.52300
C1028       C  0.39867242  0.69669618  0.31730254     0.11800
H1029       H  0.37648919  0.71310482  0.25864336     0.16300
H1030       H  0.36685325  0.67810684  0.32438982     0.02000
H1031       H  0.36526530  0.75287793  0.31635808     0.16600
H1032       H  0.42572579  0.71931350  0.30454491     0.16400
C1033       C  0.31458630  0.61655774  0.23833029     0.88200
C1034       C  0.29502529  0.62262032  0.25576326    -0.52000
C1035       C  0.30332423  0.63136692  0.27585473     0.11100
C1036       C  0.32993310  0.63219647  0.27693571     0.22100
C1037       C  0.32867847  0.63906632  0.23569709    -0.52800
C1038       C  0.33694898  0.64706086  0.25615637     0.11200
C1039       C  0.33107375  0.59952433  0.25093329    -0.52300
C1040       C  0.33905658  0.60808555  0.27127843     0.11800
H1041       H  0.27651594  0.62172675  0.25192172     0.16300
H1042       H  0.33593157  0.63839174  0.29395492     0.02000
H1043       H  0.33152927  0.64792865  0.21940065     0.16600
H1044       H  0.33657906  0.58289725  0.24400024     0.16400
C1045       C  0.40802844  0.59567937  0.35569576     0.88200
C1046       C  0.42107241  0.61809824  0.34896365    -0.52000
C1047       C  0.40747904  0.63360767  0.33733077     0.11100
C1048       C  0.38256201  0.62518971  0.33300958     0.22100
C1049       C  0.38607276  0.60403664  0.36903208    -0.52800
C1050       C  0.37281998  0.61941451  0.35684300     0.11200
C1051       C  0.39841272  0.58613161  0.33277515    -0.52300
C1052       C  0.38501448  0.60173175  0.32103472     0.11800
H1053       H  0.43894738  0.62171901  0.35380054     0.16300
H1054       H  0.37148734  0.63769405  0.32345447     0.02000
H1055       H  0.38132225  0.59803238  0.38616215     0.16600
H1056       H  0.40116669  0.56850318  0.32691262     0.16400
C1057       C  0.35703821  0.59798039  0.28560540    -0.11600
C1058       C  0.37131984  0.59653054  0.30081231    -0.13100
C1059       C  0.41202968  0.67716044  0.32582856    -0.11600
C1060       C  0.41410505  0.65714906  0.33170936    -0.13100
C1061       C  0.36318314  0.67091636  0.27774644    -0.14700
C1062       C  0.34939712  0.66902846  0.25935467    -0.29900
H1063       H  0.36855362  0.65550602  0.28706214     0.14300
H1064       H  0.34451322  0.68408151  0.24916788     0.14900
C1065       C  0.29644598  0.66366754  0.30155788    -0.14700
C1066       C  0.28908977  0.64305138  0.29382968    -0.29900
H1067       H  0.30989420  0.67269946  0.29186132     0.14300
H1068       H  0.27622333  0.63312232  0.30339311     0.14900
C1069       C  0.33309630  0.64064154  0.36482868    -0.11600
C1070       C  0.35088680  0.62936072  0.36430527    -0.13100
C1071       C  0.33267310  0.71389777  0.35837719    -0.14700
C1072       C  0.35246023  0.72049831  0.34731494    -0.29900
H1073       H  0.33032866  0.72175948  0.37526778     0.14300
H1074       H  0.36302794  0.73273443  0.35681547     0.14900
C1075       C  0.40211743  0.76636622  0.26932709    -0.11600
C1076       C  0.39644004  0.74967269  0.28044234    -0.13100
C1077       C  0.25598530  0.67988695  0.37689812    -0.11600
C1078       C  0.23761850  0.68338474  0.38663717    -0.13100
C1079       C  0.29764373  0.60054374  0.19872734    -0.11600
C1080       C  0.30568482  0.60784004  0.21639257    -0.13100
C1081       C  0.48931604  0.44997233  0.46438845    -0.11600
C1082       C  0.50367980  0.44866156  0.44911683    -0.13100
C1083       C  0.43530920  0.58398487  0.38742168    -0.14700
C1084       C  0.42255108  0.57810154  0.36896226    -0.29900
H1085       H  0.43560452  0.60202891  0.39261884     0.14300
H1086       H  0.42277032  0.56023910  0.36318571     0.14900
C1087       C  0.49304533  0.51677046  0.39203834    -0.11600
C1088       C  0.50656528  0.50063352  0.39208643    -0.13100
C1089       C  0.43886463  0.52076423  0.44771565    -0.11600
C1090       C  0.43826178  0.50702690  0.46340837    -0.13100
C1091       C  0.51065242  0.51765705  0.51654188    -0.11600
C1092       C  0.49428894  0.50461382  0.51740391    -0.13100
C1093       C  0.56398496  0.51176340  0.45968658    -0.11600
C1094       C  0.56257912  0.49721526  0.44492847    -0.13100
C1095       C  0.51282914  0.56939824  0.46080245    -0.11600
C1096       C  0.49739503  0.57009525  0.44679084    -0.13100
C1097       C  0.57698260  0.43908335  0.36884886    -0.14700
C1098       C  0.56306784  0.43285858  0.38653758    -0.29900
H1099       H  0.57785001  0.45719284  0.36386433     0.14300
H1100       H  0.56180622  0.41464607  0.39105324     0.14900
C1101       C  0.64232511  0.41794142  0.28449941    -0.11600
C1102       C  0.63048137  0.41994226  0.30173026    -0.13100
C1103       C  0.58455404  0.34708157  0.31252993    -0.11600
C1104       C  0.58409772  0.36415268  0.32444130    -0.13100
C1105       C  0.62460953  0.34939611  0.24408332    -0.14700
C1106       C  0.64790698  0.35076841  0.24315360    -0.29900
H1107       H  0.61406833  0.36458152  0.24021678     0.14300
H1108       H  0.65822701  0.33621985  0.24935549     0.14900
C1109       C  0.70170092  0.37830899  0.30620630    -0.14700
C1110       C  0.70768384  0.37495396  0.28406041    -0.29900
H1111       H  0.68908188  0.39194582  0.31000304     0.14300
H1112       H  0.71940591  0.36093929  0.27918727     0.14900
C1113       C  0.66300901  0.37231408  0.36893519    -0.11600
C1114       C  0.64554170  0.38408854  0.36827116    -0.13100
C1115       C  0.66474071  0.31041514  0.32151538    -0.14700
C1116       C  0.65696146  0.31830244  0.30125299    -0.29900
H1117       H  0.65610658  0.29633992  0.33043918     0.14300
H1118       H  0.66602432  0.33265571  0.29319502     0.14900
C1119       C  0.73769270  0.32595049  0.36666249    -0.11600
C1120       C  0.75498181  0.31764838  0.37536449    -0.13100
C1121       C  0.68918151  0.41926016  0.21092859    -0.11600
C1122       C  0.69452982  0.42817989  0.19282676    -0.13100
C1123       C  0.58413831  0.25496011  0.26021435    -0.11600
C1124       C  0.59098282  0.27324046  0.26729326    -0.13100
C1125       C  0.43415497  0.43038812  0.54019514    -0.14700
C1126       C  0.42728129  0.44860473  0.52728418    -0.29900
H1127       H  0.45238891  0.42512523  0.53972785     0.14300
H1128       H  0.40889343  0.45332513  0.52718861     0.14900
C1129       C  0.36875761  0.41843773  0.62685512    -0.11600
C1130       C  0.38029618  0.41969682  0.60934504    -0.13100
C1131       C  0.41516515  0.33884423  0.59523895    -0.11600
C1132       C  0.41696337  0.35669915  0.58443878    -0.13100
C1133       C  0.38321289  0.34829938  0.66079461    -0.14700
C1134       C  0.36329423  0.35240710  0.67229350    -0.29900
H1135       H  0.39254928  0.36307535  0.65383640     0.14300
H1136       H  0.35281132  0.33807549  0.67846675     0.14900
C1137       C  0.29517373  0.37587619  0.60947747    -0.14700
C1138       C  0.30857581  0.36858692  0.62687078    -0.29900
H1139       H  0.28731343  0.39303973  0.60956208     0.14300
H1140       H  0.31692150  0.35165629  0.62539063     0.14900
C1141       C  0.33944305  0.37748892  0.54296092    -0.11600
C1142       C  0.35811532  0.38695003  0.54336562    -0.13100
C1143       C  0.34391942  0.31923300  0.58539569    -0.14700
C1144       C  0.34461814  0.30645508  0.60461585    -0.29900
H1145       H  0.36015778  0.32625460  0.57864435     0.14300
H1146       H  0.32875565  0.29967898  0.61235720     0.14900
C1147       C  0.30669535  0.42882144  0.71320009    -0.11600
C1148       C  0.31487674  0.42075711  0.69574571    -0.13100
C1149       C  0.41111580  0.26694723  0.64479224    -0.11600
C1150       C  0.41845727  0.24856677  0.65178739    -0.13100
C1151       C  0.26814831  0.32763451  0.54296461    -0.11600
C1152       C  0.25159952  0.31848676  0.53418051    -0.13100
C1153       C  0.57235360  0.59180855  0.53170119    -0.14700
C1154       C  0.57838065  0.57332645  0.51883450    -0.29900
H1155       H  0.55430274  0.59775287  0.53194887     0.14300
H1156       H  0.59661885  0.56796012  0.51830037     0.14900
C1157       C  0.63953869  0.58892200  0.61555481    -0.11600
C1158       C  0.62724921  0.59007442  0.59883166    -0.13100
C1159       C  0.59545824  0.67601120  0.59536651    -0.11600
C1160       C  0.59321428  0.65868363  0.58390618    -0.13100
C1161       C  0.63921962  0.67472763  0.65766467    -0.14700
C1162       C  0.63555947  0.65297285  0.65071273    -0.29900
H1163       H  0.65258771  0.67862368  0.67021542     0.14300
H1164       H  0.62250941  0.65010119  0.63751613     0.14900
C1165       C  0.69857062  0.65547434  0.61072809    -0.14700
C1166       C  0.70468364  0.63413180  0.61750134    -0.29900
H1167       H  0.68497256  0.66450104  0.62039179     0.14300
H1168       H  0.71750723  0.62405443  0.60791959     0.14900
C1169       C  0.64991756  0.63273850  0.53873642    -0.11600
C1170       C  0.66786427  0.64354162  0.53940528    -0.13100
C1171       C  0.66215907  0.71033953  0.57571325    -0.14700
C1172       C  0.66162097  0.71917678  0.59703588    -0.29900
H1173       H  0.64560724  0.70644566  0.56761276     0.14300
H1174       H  0.67780948  0.72139056  0.60636470     0.14900
C1175       C  0.68946218  0.58306741  0.70817568    -0.11600
C1176       C  0.68328701  0.59103707  0.68997451    -0.13100
C1177       C  0.58420653  0.76574576  0.65113217    -0.11600
C1178       C  0.59338256  0.74831637  0.64372909    -0.13100
C1179       C  0.74176455  0.68994610  0.54318950    -0.11600
C1180       C  0.75980566  0.69670945  0.53463092    -0.13100
C1181       C  0.06104283  0.00273064  0.95591069    -0.11600
C1182       C  0.05944528  0.01652881  0.97144352    -0.13100
C1183       C  0.00885462  0.94674195  0.94955398    -0.11600
C1184       C  0.99317507  0.94523592  0.96344343    -0.13100
C1185       C  0.98693390  0.99544203  0.02070271    -0.11600
C1186       C  0.00142065  0.01041041  0.02252259    -0.13100
C1187       C  0.00967959  0.00413349  0.89896183    -0.11600
C1188       C  0.99388392  0.01807606  0.89946904    -0.13100
C1189       C  0.93568442  0.01250079  0.95046285    -0.11600
C1190       C  0.93514793  0.99658058  0.96391603    -0.13100
C1191       C  0.98814501  0.06863816  0.95720084    -0.11600
C1192       C  0.00197462  0.06845783  0.97280456    -0.13100
C1193       C  0.07441546  0.09069846  0.03094328    -0.14700
C1194       C  0.06080812  0.07300566  0.03773087    -0.29900
H1195       H  0.07453812  0.09547749  0.01281263     0.14300
H1196       H  0.06008105  0.06845643  0.05590042     0.14900
C1197       C  0.08538236  0.15560755  0.11676884    -0.11600
C1198       C  0.08468936  0.14110266  0.10177677    -0.13100
C1199       C  0.16699758  0.09526383  0.08739148    -0.11600
C1200       C  0.14757373  0.09444620  0.07924466    -0.13100
C1201       C  0.15495868  0.16030024  0.15015322    -0.14700
C1202       C  0.15902094  0.14637153  0.13214867    -0.29900
H1203       H  0.16882869  0.16470206  0.16208392     0.14300
H1204       H  0.14454870  0.14148082  0.12122549     0.14900
C1205       C  0.13562037  0.21977169  0.11293243    -0.14700
C1206       C  0.15707465  0.21109924  0.10841021    -0.29900
H1207       H  0.12779737  0.23268516  0.10184443     0.14300
H1208       H  0.16397518  0.19765509  0.11942147     0.14900
C1209       C  0.13975806  0.17537581  0.04389491    -0.11600
C1210       C  0.12747753  0.15852057  0.04353395    -0.13100
C1211       C  0.21590909  0.15006810  0.06721177    -0.14700
C1212       C  0.21159432  0.17012948  0.05594855    -0.29900
H1213       H  0.22787177  0.13827705  0.05843816     0.14300
H1214       H  0.22059428  0.17161370  0.03943050     0.14900
C1215       C  0.93494727  0.26008907  0.33810004    -0.14700
C1216       C  0.95600867  0.25406839  0.34630334    -0.29900
H1217       H  0.93312859  0.26513580  0.32018058     0.14300
H1218       H  0.95786106  0.25014810  0.36445395     0.14900
C1219       C  0.09000007  0.20744155  0.18602937    -0.11600
C1220       C  0.08270485  0.21580813  0.20375251    -0.13100
C1221       C  0.13605479  0.26156140  0.37915189    -0.14700
C1222       C  0.12879145  0.25455196  0.40005928    -0.29900
H1223       H  0.15419058  0.26602830  0.37612398     0.14300
H1224       H  0.11110536  0.24819152  0.40211670     0.14900
C1225       C  0.35748740  0.94136505  0.20936766    -0.14700
C1226       C  0.36800115  0.96151272  0.21386259    -0.29900
H1227       H  0.33861255  0.94045122  0.20818369     0.14300
H1228       H  0.38665547  0.96155597  0.21713826     0.14900
C1229       C  0.23732123  0.10819498  0.13771093    -0.11600
C1230       C  0.25409358  0.10179678  0.14859915    -0.13100
C1231       C  0.42821492  0.12151799  0.23351773    -0.14700
C1232       C  0.43716757  0.14118689  0.22506342    -0.29900
H1233       H  0.43949861  0.10993968  0.24320187     0.14300
H1234       H  0.42609320  0.15377771  0.21647409     0.14900
C1235       C  0.27997874  0.38805991  0.89732729    -0.14700
C1236       C  0.28243510  0.39682335  0.91857970    -0.29900
H1237       H  0.27714332  0.36969380  0.89481269     0.14300
H1238       H  0.28671194  0.41498777  0.92056594     0.14900
C1239       C  0.18536999  0.24857919  0.03574352    -0.11600
C1240       C  0.19088472  0.26668071  0.02700991    -0.13100
C1241       C  0.22828655  0.44037753  0.08302400    -0.14700
C1242       C  0.24566483  0.45324164  0.09134026    -0.29900
H1243       H  0.21023753  0.44524114  0.08645899     0.14300
H1244       H  0.26368019  0.44749457  0.08948132     0.14900
C1245       C  0.91024285  0.93667055  0.03410647    -0.14700
C1246       C  0.92849597  0.93019610  0.02081169    -0.29900
H1247       H  0.90543802  0.95488134  0.03487746     0.14300
H1248       H  0.93296350  0.91192264  0.01963244     0.14900
C1249       C  0.84165692  0.92110148  0.08685765    -0.11600
C1250       C  0.82443423  0.91987419  0.09893966    -0.13100
C1251       C  0.84908831  0.84707173  0.03988666    -0.11600
C1252       C  0.86112956  0.86414600  0.03958490    -0.13100
C1253       C  0.78621031  0.83697824  0.09105909    -0.14700
C1254       C  0.78587822  0.85994945  0.08844560    -0.29900
H1255       H  0.77839166  0.82905958  0.10620828     0.14300
H1256       H  0.79461778  0.86733127  0.07349431     0.14900
C1257       C  0.84093354  0.87981596  0.16087049    -0.14700
C1258       C  0.81878526  0.87257489  0.16087843    -0.29900
H1259       H  0.84494954  0.89623717  0.15265078     0.14300
H1260       H  0.81446931  0.85551740  0.16744835     0.14900
C1261       C  0.90546368  0.87207896  0.12009731    -0.11600
C1262       C  0.90568798  0.88229189  0.10194130    -0.13100
C1263       C  0.85895319  0.81118715  0.12587921    -0.14700
C1264       C  0.86077463  0.81645339  0.10347997    -0.29900
H1265       H  0.84700318  0.79791648  0.13185013     0.14300
H1266       H  0.87263272  0.83010240  0.09817647     0.14900
C1267       C  0.05897233  0.75895950  0.31965815    -0.14700
C1268       C  0.07078396  0.74045548  0.32730184    -0.29900
H1269       H  0.06595523  0.77622071  0.32192989     0.14300
H1270       H  0.06463521  0.72315080  0.32348652     0.14900
C1271       C  0.91326610  0.82330586  0.21365362    -0.11600
C1272       C  0.90428384  0.83130590  0.19665806    -0.13100
C1273       C  0.89541321  0.72746000  0.37646307    -0.14700
C1274       C  0.87291696  0.73131698  0.38205795    -0.29900
H1275       H  0.90771076  0.72300397  0.38995548     0.14300
H1276       H  0.85990115  0.73413021  0.36883132     0.14900
C1277       C  0.75223819  0.63981108  0.89695320    -0.14700
C1278       C  0.73416845  0.63231136  0.88449316    -0.29900
H1279       H  0.76987921  0.63830522  0.89009174     0.14300
H1280       H  0.71640794  0.63541629  0.89047386     0.14900
C1281       C  0.80997962  0.74908840  0.04047605    -0.11600
C1282       C  0.81571000  0.76755085  0.04811692    -0.13100
C1283       C  0.70623350  0.58879362  0.05798674    -0.14700
C1284       C  0.71493132  0.57923947  0.07724186    -0.29900
H1285       H  0.69397870  0.57905256  0.04771137     0.14300
H1286       H  0.72653734  0.58893660  0.08825288     0.14900
C1287       C  0.60422488  0.04708273  0.23651578    -0.14700
C1288       C  0.61324495  0.06825804  0.23372090    -0.29900
H1289       H  0.58630840  0.04544471  0.24247664     0.14300
H1290       H  0.63148118  0.07030293  0.22898229     0.14900
C1291       C  0.72873267  0.92575146  0.14734638    -0.11600
C1292       C  0.74691191  0.91782227  0.14013388    -0.13100
C1293       C  0.55228897  0.87949971  0.20551372    -0.14700
C1294       C  0.53172949  0.89070669  0.20492239    -0.29900
H1295       H  0.55315638  0.86083992  0.20359057     0.14300
H1296       H  0.53147429  0.90950316  0.20465888     0.14900
C1297       C  0.07537102  0.94490938  0.89216408    -0.14700
C1298       C  0.06888923  0.93178373  0.87415237    -0.29900
H1299       H  0.09365933  0.94514395  0.89694045     0.14300
H1300       H  0.05075833  0.93186985  0.86885754     0.14900
C1301       C  0.08975402  0.86571414  0.79042559    -0.11600
C1302       C  0.08812137  0.87787255  0.80739519    -0.13100
C1303       C  0.11824428  0.80018955  0.81220198    -0.14700
C1304       C  0.12507455  0.79627075  0.79045767    -0.29900
H1305       H  0.10329660  0.81156178  0.81504696     0.14300
H1306       H  0.14103693  0.78658023  0.78700864     0.14900
C1307       C  0.12104212  0.86130979  0.87438495    -0.11600
C1308       C  0.13125029  0.84299004  0.87448253    -0.13100
C1309       C  0.19958407  0.85085642  0.81997792    -0.14700
C1310       C  0.18344349  0.83482115  0.81552151    -0.29900
H1311       H  0.20936105  0.85046625  0.83590881     0.14300
H1312       H  0.17366062  0.83629847  0.79962715     0.14900
C1313       C  0.16352296  0.92047588  0.82050490    -0.11600
C1314       C  0.14566007  0.92184134  0.83155922    -0.13100
C1315       C  0.15729538  0.87775466  0.75961257    -0.14700
C1316       C  0.15643479  0.85652441  0.75063294    -0.29900
H1317       H  0.14097381  0.88654414  0.76385275     0.14300
H1318       H  0.17232877  0.84648342  0.74798070     0.14900
C1319       C  0.94012530  0.78078781  0.56830418    -0.14700
C1320       C  0.93577293  0.77920843  0.54563330    -0.29900
H1321       H  0.92726589  0.77500679  0.58083626     0.14300
H1322       H  0.94884593  0.78489948  0.53334740     0.14900
C1323       C  0.07793410  0.81376383  0.69851653    -0.11600
C1324       C  0.08610415  0.81950307  0.71674025    -0.13100
C1325       C  0.11516968  0.78329759  0.51411489    -0.14700
C1326       C  0.10960541  0.78737724  0.49201899    -0.29900
H1327       H  0.13138390  0.77441457  0.51820367     0.14300
H1328       H  0.09379740  0.79706067  0.48816899     0.14900
C1329       C  0.37453476  0.06213131  0.71585891    -0.14700
C1330       C  0.39589658  0.06902998  0.72213470    -0.29900
H1331       H  0.36201302  0.07443342  0.70892652     0.14300
H1332       H  0.40757024  0.05663826  0.73023359     0.14900
C1333       C  0.25285284  0.92138705  0.76176860    -0.11600
C1334       C  0.23569847  0.91372206  0.77118069    -0.13100
C1335       C  0.43717712  0.88523130  0.72536017    -0.14700
C1336       C  0.45831787  0.89239541  0.73222272    -0.29900
H1337       H  0.43503372  0.86798826  0.71836313     0.14300
H1338       H  0.45978301  0.90928280  0.74020472     0.14900
C1339       C  0.21086615  0.62963890  0.02354153    -0.14700
C1340       C  0.20435972  0.60887106  0.03158507    -0.29900
H1341       H  0.21889373  0.64218907  0.03483044     0.14300
H1342       H  0.19522470  0.59704061  0.02034531     0.14900
C1343       C  0.18167478  0.74907370  0.87754402    -0.11600
C1344       C  0.17444985  0.76701194  0.86953578    -0.13100
C1345       C  0.22583934  0.56130332  0.85801456    -0.14700
C1346       C  0.23691575  0.55891473  0.83767077    -0.29900
H1347       H  0.22241722  0.54606388  0.86838096     0.14300
H1348       H  0.23995692  0.57380118  0.82667078     0.14900
C1349       C  0.92917206  0.07796467  0.89349564    -0.14700
C1350       C  0.93766554  0.09214175  0.87706252    -0.29900
H1351       H  0.91044501  0.07716902  0.89611784     0.14300
H1352       H  0.95631217  0.09251446  0.87383019     0.14900
C1353       C  0.92483350  0.15626297  0.79103822    -0.11600
C1354       C  0.92646045  0.14438435  0.80805608    -0.13100
C1355       C  0.86732312  0.09805358  0.82529609    -0.11600
C1356       C  0.85022776  0.09741259  0.81321117    -0.13100
C1357       C  0.84065581  0.14803158  0.75100072    -0.14700
C1358       C  0.86355995  0.14363655  0.74874512    -0.29900
H1359       H  0.83378440  0.16494166  0.74632118     0.14300
H1360       H  0.87021997  0.12710111  0.75483733     0.14900
C1361       C  0.87226927  0.22345930  0.80301200    -0.14700
C1362       C  0.86604529  0.20996408  0.78541642    -0.29900
H1363       H  0.88925093  0.23171813  0.80323936     0.14300
H1364       H  0.84925188  0.20130551  0.78634569     0.14900
C1365       C  0.87355536  0.17977007  0.86826811    -0.11600
C1366       C  0.88433108  0.16169340  0.86868527    -0.13100
C1367       C  0.81009707  0.18171892  0.82485324    -0.14700
C1368       C  0.81787300  0.15982544  0.82452038    -0.29900
H1369       H  0.79536174  0.18707399  0.81442240     0.14300
H1370       H  0.83277370  0.15516378  0.83507809     0.14900
C1371       C  0.63845210  0.94996380  0.72528618    -0.14700
C1372       C  0.63128120  0.93779972  0.70704365    -0.29900
H1373       H  0.63630616  0.94315937  0.74261426     0.14300
H1374       H  0.63515935  0.94395393  0.68974777     0.14900
C1375       C  0.77032789  0.10412922  0.77772268    -0.11600
C1376       C  0.75178849  0.09656659  0.77141663    -0.13100
C1377       C  0.56284986  0.13282409  0.70751257    -0.14700
C1378       C  0.56827466  0.11038525  0.71056204    -0.29900
H1379       H  0.57652917  0.14524194  0.70389679     0.14300
H1380       H  0.55434362  0.09783166  0.71210605     0.14900
C1381       C  0.73701138  0.39619637  0.00093886    -0.14700
C1382       C  0.72694587  0.41714107  0.00335557    -0.29900
H1383       H  0.73757807  0.38420003  0.01532766     0.14300
H1384       H  0.72578625  0.42854001  0.98853714     0.14900
C1385       C  0.82607463  0.25376228  0.87018380    -0.11600
C1386       C  0.81753795  0.27148148  0.87746279    -0.13100
C1387       C  0.78162949  0.45323377  0.83100948    -0.14700
C1388       C  0.78414698  0.47523723  0.83787700    -0.29900
H1389       H  0.77695942  0.44939395  0.81334037     0.14300
H1390       H  0.79021948  0.47872512  0.85519678     0.14900
C1391       C  0.07398839  0.24254889  0.58073219    -0.14700
C1392       C  0.07986931  0.23727695  0.55898255    -0.29900
H1393       H  0.08731736  0.24568950  0.59353329     0.14300
H1394       H  0.06635945  0.23244435  0.54689728     0.14900
C1395       C  0.92874452  0.21021117  0.70051569    -0.11600
C1396       C  0.92048236  0.20189227  0.71773837    -0.13100
C1397       C  0.90133676  0.25653561  0.51750147    -0.14700
C1398       C  0.87862703  0.26138098  0.51400152    -0.29900
H1399       H  0.91273310  0.25336850  0.50287137     0.14300
H1400       H  0.86726638  0.26581360  0.52840709     0.14900
loop_ 
_geom_bond_atom_site_label_1 
_geom_bond_atom_site_label_2 
_geom_bond_distance 
_geom_bond_site_symmetry_2 
_ccdc_geom_bond_type 
N1            N2   1.319       .  A
N1            C5   1.348       .  A
N1           Cu9   2.068   1_455  S
N2            C3   1.339       .  A
N2           Cu8   2.053   1_455  S
C3            C4   1.383       .  A
C3            H6   1.082       .  S
C4            C5   1.384       .  A
C4         C1391   1.474       .  S
C5            H7   1.082       .  S
Cu8          N11   2.053       .  S
Cu9          N19   2.071       .  S
Cu10         N12   2.086       .  S
Cu10         N18   2.088       .  S
N11          N12   1.321       .  A
N11          C15   1.336       .  A
N12          C13   1.354       .  A
C13          C14   1.390       .  A
C13          H16   1.082       .  S
C14          C15   1.376       .  A
C14        C1397   1.472       .  S
C15          H17   1.083       .  S
N18          N19   1.327       .  A
N18          C22   1.345       .  A
N19          C20   1.345       .  A
C20          C21   1.377       .  A
C20          H23   1.082       .  S
C21          C22   1.378       .  A
C21        C1395   1.434       .  S
C22          H24   1.082       .  S
N25          N26   1.320       .  A
N25          C29   1.350       .  A
N25         Cu33   2.084       .  S
N26          C27   1.340       .  A
N26         Cu32   2.061       .  S
C27          C28   1.385       .  A
C27          H30   1.081       .  S
C28          C29   1.388       .  A
C28        C1381   1.484   1_556  S
C29          H31   1.082       .  S
Cu32         N35   2.060       .  S
Cu33         N43   2.086       .  S
Cu34         N36   2.084       .  S
Cu34         N42   2.086       .  S
N35          N36   1.320       .  A
N35          C39   1.341       .  A
N36          C37   1.349       .  A
C37          C38   1.387       .  A
C37          H40   1.082       .  S
C38          C39   1.384       .  A
C38        C1387   1.481       .  S
C39          H41   1.082       .  S
N42          N43   1.326       .  A
N42          C46   1.345       .  A
N43          C44   1.348       .  A
C44          C45   1.380       .  A
C44          H47   1.080       .  S
C45          C46   1.379       .  A
C45        C1386   1.440       .  S
C46          H48   1.084       .  S
N49          N50   1.321       .  A
N49          C53   1.348   1_545  A
N49         Cu57   2.082       .  S
N50          C51   1.342   1_545  A
N50         Cu56   2.058       .  S
C51          C52   1.381       .  A
C51          H54   1.082       .  S
C52          C53   1.385       .  A
C52        C1371   1.473       .  S
C53          H55   1.082       .  S
Cu56         N59   2.060       .  S
Cu57         N67   2.084       .  S
Cu58         N60   2.098       .  S
Cu58         N66   2.100       .  S
N59          N60   1.322       .  A
N59          C63   1.341       .  A
N60          C61   1.353       .  A
C61          C62   1.390       .  A
C61          H64   1.082       .  S
C62          C63   1.377       .  A
C62        C1378   1.476       .  S
C63          H65   1.082       .  S
N66          N67   1.326       .  A
N66          C70   1.349       .  A
N67          C68   1.347       .  A
C68          C69   1.380       .  A
C68          H71   1.081       .  S
C69          C70   1.384       .  A
C69        C1376   1.446       .  S
C70          H72   1.082       .  S
C73          C74   1.547       .  S
C73          C79   1.543       .  S
C73          C77   1.540       .  S
C73        C1385   1.470       .  S
C74          H81   1.087       .  S
C74          C75   1.368       .  D
C75          C76   1.526       .  S
C75        C1365   1.448       .  S
C76          C80   1.534       .  S
C76          C78   1.534       .  S
C76          H82   1.111       .  S
C77          H83   1.087       .  S
C77          C78   1.360       .  D
C78        C1361   1.477       .  S
C79          H84   1.086       .  S
C79          C80   1.363       .  D
C80        C1367   1.481       .  S
C85          C86   1.552       .  S
C85          C91   1.540       .  S
C85          C89   1.545       .  S
C85        C1375   1.476       .  S
C86          H93   1.086       .  S
C86          C87   1.369       .  D
C87          C88   1.520       .  S
C87        C1356   1.446       .  S
C88          C92   1.531       .  S
C88          C90   1.527       .  S
C88          H94   1.108       .  S
C89          H95   1.087       .  S
C89          C90   1.366       .  D
C90        C1368   1.469       .  S
C91          H96   1.087       .  S
C91          C92   1.362       .  D
C92        C1357   1.477       .  S
C97          C98   1.543       .  S
C97         C103   1.542       .  S
C97         C101   1.546       .  S
C97        C1396   1.465       .  S
C98         H105   1.086       .  S
C98          C99   1.364       .  D
C99         C100   1.527       .  S
C99        C1353   1.442       .  S
C100        C104   1.526       .  S
C100        C102   1.525       .  S
C100        H106   1.108       .  S
C101        H107   1.086       .  S
C101        C102   1.364       .  D
C102       C1358   1.472       .  S
C103        H108   1.087       .  S
C103        C104   1.363       .  D
C104       C1362   1.467       .  S
C109        C110   1.547       .  S
C109        C115   1.546       .  S
C109        C113   1.548       .  S
C109       C1350   1.518       .  S
C110        H117   1.086       .  S
C110        C111   1.362       .  D
C111        C112   1.533       .  S
C111       C1355   1.449       .  S
C112        C116   1.531       .  S
C112        C114   1.529       .  S
C112        H118   1.112       .  S
C113        H119   1.085       .  S
C113        C114   1.366       .  D
C114       C1354   1.443       .  S
C115        H120   1.087       .  S
C115        C116   1.366       .  D
C116       C1366   1.449       .  S
N121        N122   1.319       .  A
N121        C125   1.349       .  A
N121       Cu129   2.075       .  S
N122        C123   1.339       .  A
N122       Cu128   2.049       .  S
C123        C124   1.383       .  A
C123        H126   1.082       .  S
C124        C125   1.386       .  A
C124       C1339   1.477   1_556  S
C125        H127   1.082       .  S
Cu128       N131   2.048       .  S
Cu129       N139   2.079       .  S
Cu130       N132   2.092       .  S
Cu130       N138   2.096       .  S
N131        N132   1.320       .  A
N131        C135   1.336       .  A
N132        C133   1.354       .  A
C133        C134   1.391       .  A
C133        H136   1.082       .  S
C134        C135   1.375       .  A
C134       C1345   1.473       .  S
C135        H137   1.083       .  S
N138        N139   1.327       .  A
N138        C142   1.347       .  A
N139        C140   1.346       .  A
C140        C141   1.377       .  A
C140        H143   1.083       .  S
C141        C142   1.381       .  A
C141       C1343   1.440       .  S
C142        H144   1.081       .  S
N145        N146   1.320       .  A
N145        C149   1.351       .  A
N145       Cu153   2.087       .  S
N146        C147   1.342       .  A
N146       Cu152   2.069       .  S
C147        C148   1.387       .  A
C147        H150   1.082       .  S
C148        C149   1.389       .  A
C148       C1335   1.488       .  S
C149        H151   1.082       .  S
Cu152       N155   2.070       .  S
Cu153       N163   2.088       .  S
Cu154       N156   2.083   1_565  S
Cu154       N162   2.085       .  S
N155        N156   1.321   1_565  A
N155        C159   1.340   1_565  A
N156        C157   1.351       .  A
C157        C158   1.387       .  A
C157        H160   1.082       .  S
C158        C159   1.386       .  A
C158       C1329   1.485       .  S
C159        H161   1.081       .  S
N162        N163   1.327       .  A
N162        C166   1.348       .  A
N163        C164   1.345       .  A
C164        C165   1.378       .  A
C164        H167   1.083       .  S
C165        C166   1.380       .  A
C165       C1333   1.440       .  S
C166        H168   1.083       .  S
N169        N170   1.321   1_655  A
N169        C173   1.352       .  A
N169       Cu177   2.085   1_655  S
N170        C171   1.339   1_455  A
N170       Cu176   2.069       .  S
C171        C172   1.387       .  A
C171        H174   1.080       .  S
C172        C173   1.389       .  A
C172       C1319   1.489       .  S
C173        H175   1.082       .  S
Cu176       N179   2.070       .  S
Cu177       N187   2.086       .  S
Cu178       N180   2.085       .  S
Cu178       N186   2.087       .  S
N179        N180   1.320       .  A
N179        C183   1.345       .  A
N180        C181   1.348       .  A
C181        C182   1.387       .  A
C181        H184   1.082       .  S
C182        C183   1.388       .  A
C182       C1325   1.486       .  S
C183        H185   1.081       .  S
N186        N187   1.326       .  A
N186        C190   1.346       .  A
N187        C188   1.348       .  A
C188        C189   1.380       .  A
C188        H191   1.083       .  S
C189        C190   1.380       .  A
C189       C1323   1.441       .  S
C190        H192   1.082       .  S
C193        C194   1.545       .  S
C193        C199   1.543       .  S
C193        C197   1.545       .  S
C193       C1334   1.471       .  S
C194        H201   1.086       .  S
C194        C195   1.365       .  D
C195        C196   1.526       .  S
C195       C1313   1.441       .  S
C196        C200   1.522       .  S
C196        C198   1.534       .  S
C196        H202   1.111       .  S
C197        H203   1.086       .  S
C197        C198   1.366       .  D
C198       C1309   1.484       .  S
C199        H204   1.086       .  S
C199        C200   1.362       .  D
C200       C1315   1.466       .  S
C205        C206   1.546       .  S
C205        C211   1.546       .  S
C205        C209   1.544       .  S
C205       C1344   1.471       .  S
C206        H213   1.085       .  S
C206        C207   1.366       .  D
C207        C208   1.523       .  S
C207       C1308   1.441       .  S
C208        C212   1.527       .  S
C208        C210   1.522       .  S
C208        H214   1.110       .  S
C209        H215   1.087       .  S
C209        C210   1.362       .  D
C210       C1303   1.468       .  S
C211        H216   1.087       .  S
C211        C212   1.367       .  D
C212       C1310   1.474       .  S
C217        C218   1.550       .  S
C217        C223   1.539       .  S
C217        C221   1.537       .  S
C217       C1324   1.471       .  S
C218        H225   1.086       .  S
C218        C219   1.370       .  D
C219        C220   1.528       .  S
C219       C1301   1.454       .  S
C220        C224   1.536       .  S
C220        C222   1.534       .  S
C220        H226   1.110       .  S
C221        H227   1.087       .  S
C221        C222   1.360       .  D
C222       C1316   1.472       .  S
C223        H228   1.086       .  S
C223        C224   1.362       .  D
C224       C1304   1.473       .  S
C229        C230   1.546       .  S
C229        C235   1.544       .  S
C229        C233   1.552       .  S
C229       C1298   1.518       .  S
C230        H237   1.087       .  S
C230        C231   1.363       .  D
C231        C232   1.530       .  S
C231       C1314   1.443       .  S
C232        C236   1.531       .  S
C232        C234   1.530       .  S
C232        H238   1.109       .  S
C233        H239   1.086       .  S
C233        C234   1.369       .  D
C234       C1302   1.455       .  S
C235        H240   1.086       .  S
C235        C236   1.362       .  D
C236       C1307   1.444       .  S
N241        N242   1.319       .  A
N241        C245   1.349       .  A
N241       Cu249   2.074       .  S
N242        C243   1.340       .  A
N242       Cu248   2.053       .  S
C243        C244   1.382       .  A
C243        H246   1.082       .  S
C244        C245   1.386       .  A
C244       C1293   1.475       .  S
C245        H247   1.082       .  S
Cu248       N251   2.052       .  S
Cu249       N259   2.076       .  S
Cu250       N252   2.096       .  S
Cu250       N258   2.099       .  S
N251        N252   1.321       .  A
N251        C255   1.337   1_565  A
N252        C253   1.354   1_565  A
C253        C254   1.393       .  A
C253        H256   1.082       .  S
C254        C255   1.375       .  A
C254       C1287   1.476       .  S
C255        H257   1.082       .  S
N258        N259   1.327       .  A
N258        C262   1.349       .  A
N259        C260   1.344       .  A
C260        C261   1.376       .  A
C260        H263   1.082       .  S
C261        C262   1.382       .  A
C261       C1291   1.439       .  S
C262        H264   1.082       .  S
N265        N266   1.322       .  A
N265        C269   1.349       .  A
N265       Cu273   2.079       .  S
N266        C267   1.340       .  A
N266       Cu272   2.070   1_554  S
C267        C268   1.379       .  A
C267        H270   1.082       .  S
C268        C269   1.388       .  A
C268       C1283   1.475       .  S
C269        H271   1.082       .  S
Cu272       N275   2.071       .  S
Cu273       N283   2.079       .  S
Cu274       N276   2.073       .  S
Cu274       N282   2.074   1_556  S
N275        N276   1.321       .  A
N275        C279   1.346       .  A
N276        C277   1.345       .  A
C277        C278   1.382       .  A
C277        H280   1.082       .  S
C278        C279   1.385       .  A
C278       C1277   1.475       .  S
C279        H281   1.082       .  S
N282        N283   1.324       .  A
N282        C286   1.345       .  A
N283        C284   1.346       .  A
C284        C285   1.380       .  A
C284        H287   1.081       .  S
C285        C286   1.379       .  A
C285       C1281   1.436       .  S
C286        H288   1.082   1_554  S
N289        N290   1.321   1_455  A
N289        C293   1.345       .  A
N289       Cu297   2.073   1_455  S
N290        C291   1.342   1_655  A
N290       Cu296   2.062       .  S
C291        C292   1.382       .  A
C291        H294   1.082       .  S
C292        C293   1.381       .  A
C292       C1267   1.469       .  S
C293        H295   1.082       .  S
Cu296       N299   2.063       .  S
Cu297       N307   2.075       .  S
Cu298       N300   2.077       .  S
Cu298       N306   2.078       .  S
N299        N300   1.321       .  A
N299        C303   1.341       .  A
N300        C301   1.349       .  A
C301        C302   1.387       .  A
C301        H304   1.082       .  S
C302        C303   1.379       .  A
C302       C1273   1.472       .  S
C303        H305   1.082       .  S
N306        N307   1.324       .  A
N306        C310   1.344       .  A
N307        C308   1.347       .  A
C308        C309   1.380       .  A
C308        H311   1.082       .  S
C309        C310   1.379       .  A
C309       C1271   1.437       .  S
C310        H312   1.081       .  S
C313        C314   1.547       .  S
C313        C319   1.542       .  S
C313        C317   1.541       .  S
C313       C1272   1.469       .  S
C314        H321   1.086       .  S
C314        C315   1.366       .  D
C315        C316   1.523       .  S
C315       C1261   1.444       .  S
C316        C320   1.534       .  S
C316        C318   1.527       .  S
C316        H322   1.111       .  S
C317        H323   1.087       .  S
C317        C318   1.363       .  D
C318       C1257   1.469       .  S
C319        H324   1.087       .  S
C319        C320   1.363       .  D
C320       C1263   1.478       .  S
C325        C326   1.547       .  S
C325        C331   1.539       .  S
C325        C329   1.542       .  S
C325       C1282   1.467       .  S
C326        H333   1.086       .  S
C326        C327   1.366       .  D
C327        C328   1.523       .  S
C327       C1251   1.445       .  S
C328        C332   1.534       .  S
C328        C330   1.527       .  S
C328        H334   1.111       .  S
C329        H335   1.086       .  S
C329        C330   1.364       .  D
C330       C1264   1.466       .  S
C331        H336   1.087       .  S
C331        C332   1.361       .  D
C332       C1253   1.476       .  S
C337        C338   1.547       .  S
C337        C343   1.539       .  S
C337        C341   1.541       .  S
C337       C1292   1.470       .  S
C338        H345   1.086       .  S
C338        C339   1.367       .  D
C339        C340   1.525       .  S
C339       C1250   1.446       .  S
C340        C344   1.533       .  S
C340        C342   1.530       .  S
C340        H346   1.111       .  S
C341        H347   1.087       .  S
C341        C342   1.363       .  D
C342       C1254   1.468       .  S
C343        H348   1.087       .  S
C343        C344   1.362       .  D
C344       C1258   1.474       .  S
C349        C350   1.548       .  S
C349        C355   1.545       .  S
C349        C353   1.548       .  S
C349       C1245   1.518       .  S
C350        H357   1.086       .  S
C350        C351   1.366       .  D
C351        C352   1.532       .  S
C351       C1252   1.447       .  S
C352        C356   1.531       .  S
C352        C354   1.529       .  S
C352        H358   1.112       .  S
C353        H359   1.086       .  S
C353        C354   1.365       .  D
C354       C1249   1.447       .  S
C355        H360   1.086       .  S
C355        C356   1.364       .  D
C356       C1262   1.446       .  S
N361        N362   1.323       .  A
N361        C365   1.348       .  A
N361       Cu369   2.082       .  S
N362        C363   1.342       .  A
N362       Cu368   2.069   1_556  S
C363        C364   1.379       .  A
C363        H366   1.081       .  S
C364        C365   1.387       .  A
C364       C1236   1.473       .  S
C365        H367   1.081       .  S
Cu368       N371   2.067       .  S
Cu369       N379   2.083   1_556  S
Cu370       N372   2.065       .  S
Cu370       N378   2.065       .  S
N371        N372   1.320       .  A
N371        C375   1.344       .  A
N372        C373   1.345       .  A
C373        C374   1.381       .  A
C373        H376   1.082       .  S
C374        C375   1.384       .  A
C374       C1241   1.471       .  S
C375        H377   1.082       .  S
N378        N379   1.324       .  A
N378        C382   1.342       .  A
N379        C380   1.348       .  A
C380        C381   1.383       .  A
C380        H383   1.085   1_554  S
C381        C382   1.376       .  A
C381       C1240   1.437       .  S
C382        H384   1.083       .  S
N385        N386   1.319       .  A
N385        C389   1.351   1_545  A
N385       Cu393   2.081       .  S
N386        C387   1.340       .  A
N386       Cu392   2.056       .  S
C387        C388   1.378   1_545  A
C387        H390   1.082       .  S
C388        C389   1.390       .  A
C388       C1226   1.473       .  S
C389        H391   1.082       .  S
Cu392       N395   2.055       .  S
Cu393       N403   2.084       .  S
Cu394       N396   2.097       .  S
Cu394       N402   2.100       .  S
N395        N396   1.321       .  A
N395        C399   1.338       .  A
N396        C397   1.354       .  A
C397        C398   1.393       .  A
C397        H400   1.082       .  S
C398        C399   1.376       .  A
C398       C1231   1.476       .  S
C399        H401   1.082       .  S
N402        N403   1.328       .  A
N402        C406   1.349       .  A
N403        C404   1.345       .  A
C404        C405   1.377       .  A
C404        H407   1.083       .  S
C405        C406   1.383       .  A
C405       C1230   1.443       .  S
C406        H408   1.083       .  S
N409        N410   1.318       .  A
N409        C413   1.352       .  A
N409       Cu417   2.083       .  S
N410        C411   1.338       .  A
N410       Cu416   2.048       .  S
C411        C412   1.383       .  A
C411        H414   1.082       .  S
C412        C413   1.390       .  A
C412       C1221   1.482       .  S
C413        H415   1.081       .  S
Cu416       N419   2.048       .  S
Cu417       N427   2.087       .  S
Cu418       N420   2.098       .  S
Cu418       N426   2.102       .  S
N419        N420   1.321       .  A
N419        C423   1.337   1_455  A
N420        C421   1.355   1_455  A
C421        C422   1.393       .  A
C421        H424   1.082       .  S
C422        C423   1.374       .  A
C422       C1216   1.475       .  S
C423        H425   1.082   1_655  S
N426        N427   1.329       .  A
N426        C430   1.350       .  A
N427        C428   1.345       .  A
C428        C429   1.376       .  A
C428        H431   1.082       .  S
C429        C430   1.382       .  A
C429       C1220   1.441       .  S
C430        H432   1.082       .  S
C433        C434   1.541       .  S
C433        C439   1.536       .  S
C433        C437   1.531       .  S
C433       C1239   1.468       .  S
C434        H441   1.086       .  S
C434        C435   1.365       .  D
C435        C436   1.534       .  S
C435       C1209   1.443       .  S
C436        C440   1.539       .  S
C436        C438   1.539       .  S
C436        H442   1.069       .  S
C437        H443   1.087       .  S
C437        C438   1.359       .  D
C438       C1206   1.470       .  S
C439        H444   1.088       .  S
C439        C440   1.372       .  D
C440       C1212   1.495       .  S
C445        C446   1.553       .  S
C445        C451   1.535       .  S
C445        C449   1.533       .  S
C445       C1229   1.474       .  S
C446        H453   1.086       .  S
C446        C447   1.370       .  D
C447        C448   1.522       .  S
C447       C1199   1.452       .  S
C448        C452   1.538       .  S
C448        C450   1.539       .  S
C448        H454   1.092       .  S
C449        H455   1.087       .  S
C449        C450   1.367       .  D
C450       C1211   1.486       .  S
C451        H456   1.085       .  S
C451        C452   1.364       .  D
C452       C1202   1.466       .  S
C457        C458   1.545       .  S
C457        C463   1.544       .  S
C457        C461   1.547       .  S
C457       C1219   1.472       .  S
C458        H465   1.087       .  S
C458        C459   1.364       .  D
C459        C460   1.524       .  S
C459       C1197   1.449       .  S
C460        C464   1.528       .  S
C460        C462   1.535       .  S
C460        H466   1.109       .  S
C461        H467   1.087       .  S
C461        C462   1.366       .  D
C462       C1201   1.481       .  S
C463        H468   1.086       .  S
C463        C464   1.363       .  D
C464       C1205   1.481       .  S
C469        C470   1.549       .  S
C469        C475   1.548       .  S
C469        C473   1.548       .  S
C469       C1193   1.521       .  S
C470        H477   1.086       .  S
C470        C471   1.368       .  D
C471        C472   1.531       .  S
C471       C1198   1.450       .  S
C472        C476   1.535       .  S
C472        C474   1.525       .  S
C472        H478   1.109       .  S
C473        H479   1.087       .  S
C473        C474   1.363       .  D
C474       C1210   1.443       .  S
C475        H480   1.087       .  S
C475        C476   1.366       .  D
C476       C1200   1.455       .  S
C481        C482   1.547       .  S
C481        C487   1.545       .  S
C481        C485   1.547       .  S
C481       C1349   1.516       .  S
C482        H489   1.087       .  S
C482        C483   1.365       .  D
C483        C484   1.530       .  S
C483       C1188   1.445       .  S
C484        C488   1.531       .  S
C484        C486   1.529       .  S
C484        H490   1.113       .  S
C485        H491   1.085       .  S
C485        C486   1.363       .  D
C486       C1189   1.444       .  S
C487        H492   1.087       .  S
C487        C488   1.365       .  D
C488       C1191   1.445       .  S
C493        C494   1.547   1_554  S
C493        C499   1.548   1_554  S
C493        C497   1.548       .  S
C493       C1246   1.518       .  S
C494        H501   1.086       .  S
C494        C495   1.364       .  D
C495        C496   1.527       .  S
C495       C1184   1.443       .  S
C496        C500   1.528       .  S
C496        C498   1.528   1_556  S
C496        H502   1.113       .  S
C497        H503   1.086       .  S
C497        C498   1.366       .  D
C498       C1185   1.446       .  S
C499        H504   1.085       .  S
C499        C500   1.366       .  D
C500       C1190   1.443       .  S
C505        C506   1.549       .  S
C505        C511   1.549       .  S
C505        C509   1.545       .  S
C505       C1297   1.517       .  S
C506        H513   1.086       .  S
C506        C507   1.364       .  D
C507        C508   1.527       .  S
C507       C1181   1.444   1_565  S
C508        C512   1.527       .  S
C508        C510   1.527       .  S
C508        H514   1.113       .  S
C509        H515   1.086       .  S
C509        C510   1.364       .  D
C510       C1183   1.442       .  S
C511        H516   1.085       .  S
C511        C512   1.367       .  D
C512       C1187   1.444   1_565  S
C517        C518   1.549       .  S
C517        C523   1.550       .  S
C517        C521   1.547       .  S
C517       C1194   1.522       .  S
C518        H525   1.086       .  S
C518        C519   1.366       .  D
C519        C520   1.527   1_554  S
C519       C1186   1.447       .  S
C520        C524   1.527       .  S
C520        C522   1.528       .  S
C520        H526   1.113       .  S
C521        H527   1.086       .  S
C521        C522   1.364   1_554  D
C522       C1182   1.444       .  S
C523        H528   1.086       .  S
C523        C524   1.367   1_554  D
C524       C1192   1.445       .  S
N529        N530   1.319       .  A
N529        C533   1.352       .  A
N529       Cu537   2.089       .  S
N530        C531   1.337       .  A
N530       Cu536   2.044       .  S
C531        C532   1.379       .  A
C531        H534   1.082       .  S
C532        C533   1.389       .  A
C532       C1274   1.478       .  S
C533        H535   1.082       .  S
Cu536       N539   2.044       .  S
Cu537       N547   2.093       .  S
Cu538       N540   2.098       .  S
Cu538       N546   2.102       .  S
N539        N540   1.319       .  A
N539        C543   1.336       .  A
N540        C541   1.355       .  A
C541        C542   1.393       .  A
C541        H544   1.082       .  S
C542        C543   1.376       .  A
C542       C1320   1.476       .  S
C543        H545   1.083       .  S
N546        N547   1.329       .  A
N546        C550   1.348       .  A
N547        C548   1.348       .  A
C548        C549   1.380       .  A
C548        H551   1.082       .  S
C549        C550   1.381       .  A
C549       C1180   1.445       .  S
C550        H552   1.082       .  S
N553        N554   1.324       .  A
N553        C557   1.354       .  A
N553       Cu561   2.102       .  S
N554        C555   1.341       .  A
N554       Cu560   2.078       .  S
C555        C556   1.379       .  A
C555        H558   1.082       .  S
C556        C557   1.391       .  A
C556       C1336   1.482       .  S
C557        H559   1.082       .  S
Cu560       N563   2.077       .  S
Cu561       N571   2.102       .  S
Cu562       N564   2.069       .  S
Cu562       N570   2.070       .  S
N563        N564   1.320       .  A
N563        C567   1.347       .  A
N564        C565   1.344       .  A
C565        C566   1.381       .  A
C565        H568   1.082       .  S
C566        C567   1.386       .  A
C566       C1372   1.472       .  S
C567        H569   1.082       .  S
N570        N571   1.324       .  A
N570        C574   1.344       .  A
N571        C572   1.351       .  A
C572        C573   1.386       .  A
C572        H575   1.081       .  S
C573        C574   1.378       .  A
C573       C1177   1.445       .  S
C574        H576   1.082       .  S
N577        N578   1.323       .  A
N577        C581   1.350       .  A
N577       Cu585   2.085       .  S
N578        C579   1.341       .  A
N578       Cu584   2.065       .  S
C579        C580   1.378       .  A
C579        H582   1.082       .  S
C580        C581   1.389       .  A
C580       C1388   1.475       .  S
C581        H583   1.082       .  S
Cu584       N587   2.065       .  S
Cu585       N595   2.086       .  S
Cu586       N588   2.074       .  S
Cu586       N594   2.075       .  S
N587        N588   1.320       .  A
N587        C591   1.344       .  A
N588        C589   1.346       .  A
C589        C590   1.384       .  A
C589        H592   1.082       .  S
C590        C591   1.384       .  A
C590       C1278   1.476       .  S
C591        H593   1.082       .  S
N594        N595   1.325       .  A
N594        C598   1.344       .  A
N595        C596   1.348       .  A
C596        C597   1.382       .  A
C596        H599   1.081       .  S
C597        C598   1.377       .  A
C597       C1175   1.438       .  S
C598        H600   1.082       .  S
C601        C602   1.545       .  S
C601        C607   1.548       .  S
C601        C605   1.547       .  S
C601       C1179   1.476       .  S
C602        H609   1.086       .  S
C602        C603   1.365       .  D
C603        C604   1.526       .  S
C603       C1165   1.470       .  S
C604        C608   1.521       .  S
C604        C606   1.524       .  S
C604        H610   1.111       .  S
C605        H611   1.085       .  S
C605        C606   1.366       .  D
C606       C1170   1.444       .  S
C607        H612   1.087       .  S
C607        C608   1.366       .  D
C608       C1171   1.473       .  S
C613        C614   1.540       .  S
C613        C619   1.544       .  S
C613        C617   1.548       .  S
C613       C1178   1.477       .  S
C614        H621   1.086       .  S
C614        C615   1.362       .  D
C615        C616   1.534       .  S
C615       C1172   1.478       .  S
C616        C620   1.537       .  S
C616        C618   1.527       .  S
C616        H622   1.110       .  S
C617        H623   1.086       .  S
C617        C618   1.368       .  D
C618       C1159   1.451       .  S
C619        H624   1.086       .  S
C619        C620   1.366       .  D
C620       C1161   1.482       .  S
C625        C626   1.543       .  S
C625        C631   1.544       .  S
C625        C629   1.549       .  S
C625       C1176   1.469       .  S
C626        H633   1.086       .  S
C626        C627   1.364       .  D
C627        C628   1.532       .  S
C627       C1166   1.479       .  S
C628        C632   1.524       .  S
C628        C630   1.523       .  S
C628        H634   1.110       .  S
C629        H635   1.085       .  S
C629        C630   1.365       .  D
C630       C1162   1.473       .  S
C631        H636   1.086       .  S
C631        C632   1.364       .  D
C632       C1157   1.439       .  S
C637        C638   1.549       .  S
C637        C643   1.543       .  S
C637        C641   1.549       .  S
C637       C1153   1.516       .  S
C638        H645   1.086       .  S
C638        C639   1.367       .  D
C639        C640   1.530       .  S
C639       C1160   1.452       .  S
C640        C644   1.531       .  S
C640        C642   1.529       .  S
C640        H646   1.110       .  S
C641        H647   1.085       .  S
C641        C642   1.365       .  D
C642       C1169   1.445       .  S
C643        H648   1.086       .  S
C643        C644   1.361       .  D
C644       C1158   1.441       .  S
N649        N650   1.320       .  A
N649        C653   1.353       .  A
N649       Cu657   2.090       .  S
N650        C651   1.338       .  A
N650       Cu656   2.050       .  S
C651        C652   1.376       .  A
C651        H654   1.082       .  S
C652        C653   1.391       .  A
C652       C1222   1.472       .  S
C653        H655   1.082       .  S
Cu656       N659   2.049       .  S
Cu657       N667   2.093       .  S
Cu658       N660   2.069       .  S
Cu658       N666   2.073       .  S
N659        N660   1.319       .  A
N659        C663   1.338       .  A
N660        C661   1.348       .  A
C661        C662   1.388       .  A
C661        H664   1.082       .  S
C662        C663   1.377       .  A
C662       C1392   1.468       .  S
C663        H665   1.082       .  S
N666        N667   1.327       .  A
N666        C670   1.343       .  A
N667        C668   1.348       .  A
C668        C669   1.381       .  A
C668        H671   1.083       .  S
C669        C670   1.376       .  A
C669       C1152   1.437       .  S
C670        H672   1.082       .  S
N673        N674   1.319       .  A
N673        C677   1.350       .  A
N673       Cu681   2.088       .  S
N674        C675   1.342       .  A
N674       Cu680   2.055       .  S
C675        C676   1.384       .  A
C675        H678   1.082       .  S
C676        C677   1.389       .  A
C676       C1377   1.484       .  S
C677        H679   1.082       .  S
Cu680       N683   2.052       .  S
Cu681       N691   2.090       .  S
Cu682       N684   2.099       .  S
Cu682       N690   2.102       .  S
N683        N684   1.321       .  A
N683        C687   1.337       .  A
N684        C685   1.355       .  A
C685        C686   1.393       .  A
C685        H688   1.082       .  S
C686        C687   1.375       .  A
C686       C1330   1.475       .  S
C687        H689   1.082       .  S
N690        N691   1.328       .  A
N690        C694   1.349       .  A
N691        C692   1.347       .  A
C692        C693   1.379       .  A
C692        H695   1.082       .  S
C693        C694   1.383       .  A
C693       C1150   1.445       .  S
C694        H696   1.082       .  S
N697        N698   1.320       .  A
N697        C701   1.351       .  A
N697       Cu705   2.085       .  S
N698        C699   1.337       .  A
N698       Cu704   2.053       .  S
C699        C700   1.385       .  A
C699        H702   1.081       .  S
C700        C701   1.389       .  A
C700       C1346   1.485       .  S
C701        H703   1.082       .  S
Cu704       N707   2.053       .  S
Cu705       N715   2.087       .  S
Cu706       N708   2.079       .  S
Cu706       N714   2.082       .  S
N707        N708   1.319       .  A
N707        C711   1.339       .  A
N708        C709   1.350       .  A
C709        C710   1.387       .  A
C709        H712   1.081       .  S
C710        C711   1.382       .  A
C710       C1235   1.477       .  S
C711        H713   1.081       .  S
N714        N715   1.327       .  A
N714        C718   1.344       .  A
N715        C716   1.348       .  A
C716        C717   1.379       .  A
C716        H719   1.082       .  S
C717        C718   1.377       .  A
C717       C1147   1.438       .  S
C718        H720   1.082       .  S
C721        C722   1.543       .  S
C721        C727   1.546       .  S
C721        C725   1.545       .  S
C721       C1151   1.467       .  S
C722        H729   1.086       .  S
C722        C723   1.363       .  D
C723        C724   1.531       .  S
C723       C1137   1.477       .  S
C724        C728   1.522       .  S
C724        C726   1.523       .  S
C724        H730   1.112       .  S
C725        H731   1.086       .  S
C725        C726   1.365       .  D
C726       C1141   1.439       .  S
C727        H732   1.086       .  S
C727        C728   1.365       .  D
C728       C1143   1.469       .  S
C733        C734   1.540       .  S
C733        C739   1.544       .  S
C733        C737   1.553       .  S
C733       C1149   1.476       .  S
C734        H741   1.087       .  S
C734        C735   1.361       .  D
C735        C736   1.534       .  S
C735       C1144   1.479       .  S
C736        C740   1.529       .  S
C736        C738   1.522       .  S
C736        H742   1.109       .  S
C737        H743   1.086       .  S
C737        C738   1.369       .  D
C738       C1131   1.450       .  S
C739        H744   1.086       .  S
C739        C740   1.365       .  D
C740       C1133   1.471       .  S
C745        C746   1.543       .  S
C745        C751   1.543       .  S
C745        C749   1.545       .  S
C745       C1148   1.468       .  S
C746        H753   1.086       .  S
C746        C747   1.361       .  D
C747        C748   1.531       .  S
C747       C1134   1.478       .  S
C748        C752   1.529       .  S
C748        C750   1.528       .  S
C748        H754   1.108       .  S
C749        H755   1.086       .  S
C749        C750   1.366       .  D
C750       C1129   1.450       .  S
C751        H756   1.085       .  S
C751        C752   1.365       .  D
C752       C1138   1.469       .  S
C757        C758   1.551       .  S
C757        C763   1.549       .  S
C757        C761   1.546       .  S
C757       C1125   1.524       .  S
C758        H765   1.085       .  S
C758        C759   1.367       .  D
C759        C760   1.530       .  S
C759       C1132   1.452       .  S
C760        C764   1.531       .  S
C760        C762   1.531       .  S
C760        H766   1.111       .  S
C761        H767   1.086       .  S
C761        C762   1.361       .  D
C762       C1142   1.443       .  S
C763        H768   1.086       .  S
C763        C764   1.369       .  D
C764       C1130   1.450       .  S
N769        N770   1.320       .  A
N769        C773   1.350       .  A
N769       Cu777   2.072       .  S
N770        C771   1.342       .  A
N770       Cu776   2.076       .  S
C771        C772   1.387       .  A
C771        H774   1.082       .  S
C772        C773   1.385       .  A
C772       C1232   1.483       .  S
C773        H775   1.082       .  S
Cu776       N779   2.076       .  S
Cu777       N787   2.073       .  S
Cu778       N780   2.076       .  S
Cu778       N786   2.077       .  S
N779        N780   1.321       .  A
N779        C783   1.342       .  A
N780        C781   1.349       .  A
C781        C782   1.385       .  A
C781        H784   1.082       .  S
C782        C783   1.387       .  A
C782       C1288   1.483       .  S
C783        H785   1.081       .  S
N786        N787   1.325       .  A
N786        C790   1.345       .  A
N787        C788   1.344       .  A
C788        C789   1.376       .  A
C788        H791   1.082       .  S
C789        C790   1.378       .  A
C789       C1123   1.434       .  S
C790        H792   1.082       .  S
N793        N794   1.320       .  A
N793        C797   1.350       .  A
N793       Cu801   2.081       .  S
N794        C795   1.340       .  A
N794       Cu800   2.061       .  S
C795        C796   1.384       .  A
C795        H798   1.081       .  S
C796        C797   1.387       .  A
C796       C1284   1.481       .  S
C797        H799   1.082       .  S
Cu800       N803   2.061       .  S
Cu801       N811   2.084       .  S
Cu802       N804   2.086       .  S
Cu802       N810   2.088       .  S
N803        N804   1.321       .  A
N803        C807   1.340       .  A
N804        C805   1.351       .  A
C805        C806   1.390       .  A
C805        H808   1.081       .  S
C806        C807   1.379       .  A
C806       C1382   1.476       .  S
C807        H809   1.082       .  S
N810        N811   1.326       .  A
N810        C814   1.347       .  A
N811        C812   1.347       .  A
C812        C813   1.379       .  A
C812        H815   1.081       .  S
C813        C814   1.381       .  A
C813       C1122   1.441       .  S
C814        H816   1.082       .  S
N817        N818   1.321       .  A
N817        C821   1.354       .  A
N817       Cu825   2.099       .  S
N818        C819   1.336       .  A
N818       Cu824   2.057       .  S
C819        C820   1.385       .  A
C819        H822   1.080       .  S
C820        C821   1.392       .  A
C820       C1398   1.490       .  S
C821        H823   1.082       .  S
Cu824       N827   2.058       .  S
Cu825       N835   2.103       .  S
Cu826       N828   2.084       .  S
Cu826       N834   2.087       .  S
N827        N828   1.318       .  A
N827        C831   1.341       .  A
N828        C829   1.350       .  A
C829        C830   1.390       .  A
C829        H832   1.082       .  S
C830        C831   1.389       .  A
C830       C1215   1.489       .  S
C831        H833   1.081       .  S
N834        N835   1.328       .  A
N834        C838   1.345       .  A
N835        C836   1.351       .  A
C836        C837   1.385       .  A
C836        H839   1.081       .  S
C837        C838   1.377       .  A
C837       C1120   1.445       .  S
C838        H840   1.081       .  S
C841        C842   1.552       .  S
C841        C847   1.543       .  S
C841        C845   1.546       .  S
C841       C1119   1.476       .  S
C842        H849   1.086       .  S
C842        C843   1.368       .  D
C843        C844   1.523       .  S
C843       C1109   1.478       .  S
C844        C848   1.533       .  S
C844        C846   1.523       .  S
C844        H850   1.111       .  S
C845        H851   1.086       .  S
C845        C846   1.365       .  D
C846       C1113   1.442       .  S
C847        H852   1.085       .  S
C847        C848   1.363       .  D
C848       C1115   1.481       .  S
C853        C854   1.544       .  S
C853        C859   1.542       .  S
C853        C857   1.544       .  S
C853       C1124   1.464       .  S
C854        H861   1.086       .  S
C854        C855   1.364       .  D
C855        C856   1.527       .  S
C855       C1116   1.470       .  S
C856        C860   1.524       .  S
C856        C858   1.526       .  S
C856        H862   1.111       .  S
C857        H863   1.085       .  S
C857        C858   1.366       .  D
C858       C1103   1.441       .  S
C859        H864   1.087       .  S
C859        C860   1.361       .  D
C860       C1105   1.469       .  S
C865        C866   1.536       .  S
C865        C871   1.547       .  S
C865        C869   1.546       .  S
C865       C1121   1.472       .  S
C866        H873   1.086       .  S
C866        C867   1.359       .  D
C867        C868   1.532       .  S
C867       C1106   1.468       .  S
C868        C872   1.535       .  S
C868        C870   1.528       .  S
C868        H874   1.110       .  S
C869        H875   1.086       .  S
C869        C870   1.367       .  D
C870       C1101   1.448       .  S
C871        H876   1.085       .  S
C871        C872   1.368       .  D
C872       C1110   1.486       .  S
C877        C878   1.544       .  S
C877        C883   1.547       .  S
C877        C881   1.548       .  S
C877       C1097   1.514       .  S
C878        H885   1.086       .  S
C878        C879   1.362       .  D
C879        C880   1.532       .  S
C879       C1114   1.445       .  S
C880        C884   1.530       .  S
C880        C882   1.530       .  S
C880        H886   1.111       .  S
C881        H887   1.086       .  S
C881        C882   1.366       .  D
C882       C1102   1.449       .  S
C883        H888   1.086       .  S
C883        C884   1.363       .  D
C884       C1104   1.443       .  S
C889        C890   1.547       .  S
C889        C895   1.547       .  S
C889        C893   1.546       .  S
C889       C1154   1.515       .  S
C890        H897   1.086       .  S
C890        C891   1.366       .  D
C891        C892   1.528       .  S
C891       C1091   1.445       .  S
C892        C896   1.527       .  S
C892        C894   1.528       .  S
C892        H898   1.113       .  S
C893        H899   1.087       .  S
C893        C894   1.361       .  D
C894       C1093   1.441       .  S
C895        H900   1.086       .  S
C895        C896   1.366       .  D
C896       C1095   1.442       .  S
C901        C902   1.547       .  S
C901        C907   1.547       .  S
C901        C905   1.550       .  S
C901       C1083   1.520       .  S
C902        H909   1.086       .  S
C902        C903   1.362       .  D
C903        C904   1.527       .  S
C903       C1096   1.443       .  S
C904        C908   1.528       .  S
C904        C906   1.528       .  S
C904        H910   1.113       .  S
C905        H911   1.085       .  S
C905        C906   1.367       .  D
C906       C1087   1.445       .  S
C907        H912   1.087       .  S
C907        C908   1.367       .  D
C908       C1089   1.446       .  S
C913        C914   1.550       .  S
C913        C919   1.550       .  S
C913        C917   1.546       .  S
C913       C1126   1.522       .  S
C914        H921   1.085       .  S
C914        C915   1.366       .  D
C915        C916   1.526       .  S
C915       C1081   1.444       .  S
C916        C920   1.527       .  S
C916        C918   1.529       .  S
C916        H922   1.113       .  S
C917        H923   1.086       .  S
C917        C918   1.366       .  D
C918       C1092   1.446       .  S
C919        H924   1.086       .  S
C919        C920   1.365       .  D
C920       C1090   1.446       .  S
C925        C926   1.544       .  S
C925        C931   1.548       .  S
C925        C929   1.547       .  S
C925       C1098   1.513       .  S
C926        H933   1.086       .  S
C926        C927   1.363       .  D
C927        C928   1.528       .  S
C927       C1094   1.440       .  S
C928        C932   1.529       .  S
C928        C930   1.528       .  S
C928        H934   1.113       .  S
C929        H935   1.086       .  S
C929        C930   1.363       .  D
C930       C1082   1.444       .  S
C931        H936   1.086       .  S
C931        C932   1.366       .  D
C932       C1088   1.446       .  S
N937        N938   1.320       .  A
N937        C941   1.345       .  A
N937       Cu945   2.070       .  S
N938        C939   1.343       .  A
N938       Cu944   2.060       .  S
C939        C940   1.382       .  A
C939        H942   1.082       .  S
C940        C941   1.382       .  A
C940       C1242   1.471       .  S
C941        H943   1.082       .  S
Cu944       N947   2.060       .  S
Cu945       N955   2.071       .  S
Cu946       N948   2.079       .  S
Cu946       N954   2.080       .  S
N947        N948   1.322       .  A
N947        C951   1.340       .  A
N948        C949   1.348       .  A
C949        C950   1.387       .  A
C949        H952   1.082       .  S
C950        C951   1.377       .  A
C950       C1340   1.471       .  S
C951        H953   1.082       .  S
N954        N955   1.324       .  A
N954        C958   1.347       .  A
N955        C956   1.344       .  A
C956        C957   1.377       .  A
C956        H959   1.082       .  S
C957        C958   1.381       .  A
C957       C1079   1.436       .  S
C958        H960   1.084       .  S
N961        N962   1.324       .  A
N961        C965   1.353       .  A
N961       Cu969   2.103       .  S
N962        C963   1.342       .  A
N962       Cu968   2.067       .  S
C963        C964   1.378       .  A
C963        H966   1.082       .  S
C964        C965   1.392       .  A
C964       C1326   1.482       .  S
C965        H967   1.081       .  S
Cu968       N971   2.067       .  S
Cu969       N979   2.103       .  S
Cu970       N972   2.052       .  S
Cu970       N978   2.052       .  S
N971        N972   1.320       .  A
N971        C975   1.344       .  A
N972        C973   1.342       .  A
C973        C974   1.379       .  A
C973        H976   1.082       .  S
C974        C975   1.385       .  A
C974       C1268   1.468       .  S
C975        H977   1.082       .  S
N978        N979   1.323       .  A
N978        C982   1.341       .  A
N979        C980   1.350       .  A
C980        C981   1.386       .  A
C980        H983   1.083       .  S
C981        C982   1.374       .  A
C981       C1078   1.438       .  S
C982        H984   1.083       .  S
N985        N986   1.321       .  A
N985        C989   1.350       .  A
N985       Cu993   2.080       .  S
N986        C987   1.339       .  A
N986       Cu992   2.058       .  S
C987        C988   1.377       .  A
C987        H990   1.082       .  S
C988        C989   1.387       .  A
C988       C1294   1.470       .  S
C989        H991   1.082       .  S
Cu992       N995   2.059       .  S
Cu993      N1003   2.081       .  S
Cu994       N996   2.081       .  S
Cu994      N1002   2.083       .  S
N995        N996   1.320       .  A
N995        C999   1.340       .  A
N996        C997   1.350       .  A
C997        C998   1.387       .  A
C997       H1000   1.082       .  S
C998        C999   1.383       .  A
C998       C1225   1.479       .  S
C999       H1001   1.082       .  S
N1002      N1003   1.326       .  A
N1002      C1006   1.346       .  A
N1003      C1004   1.346       .  A
C1004      C1005   1.378       .  A
C1004      H1007   1.083       .  S
C1005      C1006   1.379       .  A
C1005      C1075   1.437       .  S
C1006      H1008   1.082       .  S
C1009      C1010   1.538       .  S
C1009      C1015   1.538       .  S
C1009      C1013   1.533       .  S
C1009      C1077   1.470       .  S
C1010      H1017   1.088       .  S
C1010      C1011   1.373       .  D
C1011      C1012   1.536       .  S
C1011      C1071   1.496       .  S
C1012      C1016   1.535       .  S
C1012      C1014   1.537       .  S
C1012      H1018   1.088       .  S
C1013      H1019   1.086       .  S
C1013      C1014   1.361       .  D
C1014      C1065   1.470       .  S
C1015      H1020   1.086       .  S
C1015      C1016   1.364       .  D
C1016      C1069   1.443       .  S
C1021      C1022   1.528       .  S
C1021      C1027   1.550       .  S
C1021      C1025   1.535       .  S
C1021      C1076   1.468       .  S
C1022      H1029   1.085       .  S
C1022      C1023   1.359       .  D
C1023      C1024   1.538       .  S
C1023      C1061   1.460       .  S
C1024      C1028   1.522       .  S
C1024      C1026   1.542       .  S
C1024      H1030   1.098       .  S
C1025      H1031   1.087       .  S
C1025      C1026   1.371       .  D
C1026      C1072   1.490       .  S
C1027      H1032   1.086       .  S
C1027      C1028   1.367       .  D
C1028      C1059   1.448       .  S
C1033      C1034   1.543       .  S
C1033      C1039   1.547       .  S
C1033      C1037   1.544       .  S
C1033      C1080   1.467       .  S
C1034      H1041   1.087       .  S
C1034      C1035   1.362       .  D
C1035      C1036   1.527       .  S
C1035      C1066   1.481       .  S
C1036      C1040   1.521       .  S
C1036      C1038   1.533       .  S
C1036      H1042   1.109       .  S
C1037      H1043   1.087       .  S
C1037      C1038   1.365       .  D
C1038      C1062   1.474       .  S
C1039      H1044   1.087       .  S
C1039      C1040   1.365       .  D
C1040      C1057   1.448       .  S
C1045      C1046   1.549       .  S
C1045      C1051   1.548       .  S
C1045      C1049   1.547       .  S
C1045      C1084   1.521       .  S
C1046      H1053   1.086       .  S
C1046      C1047   1.365       .  D
C1047      C1048   1.534       .  S
C1047      C1060   1.452       .  S
C1048      C1052   1.530       .  S
C1048      C1050   1.526       .  S
C1048      H1054   1.109       .  S
C1049      H1055   1.087       .  S
C1049      C1050   1.365       .  D
C1050      C1070   1.442       .  S
C1051      H1056   1.085       .  S
C1051      C1052   1.365       .  D
C1052      C1058   1.450       .  S
C1057      C1058   1.211       .  T
C1059      C1060   1.211       .  T
C1061      H1063   1.086       .  S
C1061      C1062   1.338       .  D
C1062      H1064   1.088       .  S
C1065      H1067   1.087       .  S
C1065      C1066   1.346       .  D
C1066      H1068   1.087       .  S
C1069      C1070   1.206       .  T
C1071      H1073   1.089       .  S
C1071      C1072   1.356       .  D
C1072      H1074   1.088       .  S
C1075      C1076   1.206       .  T
C1077      C1078   1.207       .  T
C1079      C1080   1.206       .  T
C1081      C1082   1.207       .  T
C1083      H1085   1.087       .  S
C1083      C1084   1.347       .  D
C1084      H1086   1.086       .  S
C1087      C1088   1.208       .  T
C1089      C1090   1.209       .  T
C1091      C1092   1.208       .  T
C1093      C1094   1.205       .  T
C1095      C1096   1.206       .  T
C1097      H1099   1.087       .  S
C1097      C1098   1.346       .  D
C1098      H1100   1.088       .  S
C1101      C1102   1.210       .  T
C1103      C1104   1.206       .  T
C1105      H1107   1.086       .  S
C1105      C1106   1.338       .  D
C1106      H1108   1.087       .  S
C1109      H1111   1.088       .  S
C1109      C1110   1.342       .  D
C1110      H1112   1.085       .  S
C1113      C1114   1.207       .  T
C1115      H1117   1.085       .  S
C1115      C1116   1.339       .  D
C1116      H1118   1.086       .  S
C1119      C1120   1.211       .  T
C1121      C1122   1.209       .  T
C1123      C1124   1.204       .  T
C1125      H1127   1.086       .  S
C1125      C1126   1.350       .  D
C1126      H1128   1.086       .  S
C1129      C1130   1.211       .  T
C1131      C1132   1.212       .  T
C1133      H1135   1.087       .  S
C1133      C1134   1.338       .  D
C1134      H1136   1.086       .  S
C1137      H1139   1.087       .  S
C1137      C1138   1.339       .  D
C1138      H1140   1.090       .  S
C1141      C1142   1.206       .  T
C1143      H1145   1.088       .  S
C1143      C1144   1.338       .  D
C1144      H1146   1.086       .  S
C1147      C1148   1.206       .  T
C1149      C1150   1.211       .  T
C1151      C1152   1.206       .  T
C1153      H1155   1.087       .  S
C1153      C1154   1.346       .  D
C1154      H1156   1.088       .  S
C1157      C1158   1.205       .  T
C1159      C1160   1.212       .  T
C1161      H1163   1.086       .  S
C1161      C1162   1.340       .  D
C1162      H1164   1.088       .  S
C1165      H1167   1.087       .  S
C1165      C1166   1.340       .  D
C1166      H1168   1.085       .  S
C1169      C1170   1.208       .  T
C1171      H1173   1.087       .  S
C1171      C1172   1.340       .  D
C1172      H1174   1.086       .  S
C1175      C1176   1.207       .  T
C1177      C1178   1.211       .  T
C1179      C1180   1.211       .  T
C1181      C1182   1.208       .  T
C1183      C1184   1.206   1_455  T
C1185      C1186   1.209   1_665  T
C1187      C1188   1.208   1_455  T
C1189      C1190   1.207   1_545  T
C1191      C1192   1.208   1_655  T
C1193      H1195   1.088       .  S
C1193      C1194   1.348       .  D
C1194      H1196   1.088       .  S
C1197      C1198   1.211       .  T
C1199      C1200   1.214       .  T
C1201      H1203   1.090       .  S
C1201      C1202   1.339       .  D
C1202      H1204   1.087       .  S
C1205      H1207   1.082       .  S
C1205      C1206   1.348       .  D
C1206      H1208   1.080       .  S
C1209      C1210   1.207       .  T
C1211      H1213   1.088       .  S
C1211      C1212   1.353       .  D
C1212      H1214   1.089       .  S
C1215      H1217   1.086       .  S
C1215      C1216   1.344       .  D
C1216      H1218   1.084       .  S
C1219      C1220   1.208       .  T
C1221      H1223   1.085       .  S
C1221      C1222   1.344       .  D
C1222      H1224   1.086       .  S
C1225      H1227   1.086       .  S
C1225      C1226   1.342       .  D
C1226      H1228   1.087       .  S
C1229      C1230   1.209       .  T
C1231      H1233   1.086       .  S
C1231      C1232   1.342       .  D
C1232      H1234   1.085       .  S
C1235      H1237   1.086       .  S
C1235      C1236   1.343       .  D
C1236      H1238   1.087       .  S
C1239      C1240   1.206       .  T
C1241      H1243   1.087       .  S
C1241      C1242   1.340       .  D
C1242      H1244   1.087       .  S
C1245      H1247   1.087       .  S
C1245      C1246   1.346       .  D
C1246      H1248   1.088       .  S
C1249      C1250   1.209       .  T
C1251      C1252   1.209       .  T
C1253      H1255   1.086       .  S
C1253      C1254   1.337       .  D
C1254      H1256   1.087       .  S
C1257      H1259   1.088       .  S
C1257      C1258   1.339       .  D
C1258      H1260   1.087       .  S
C1261      C1262   1.208       .  T
C1263      H1265   1.087       .  S
C1263      C1264   1.339       .  D
C1264      H1266   1.088       .  S
C1267      H1269   1.087       .  S
C1267      C1268   1.339       .  D
C1268      H1270   1.087       .  S
C1271      C1272   1.206       .  T
C1273      H1275   1.087       .  S
C1273      C1274   1.344       .  D
C1274      H1276   1.086       .  S
C1277      H1279   1.087       .  S
C1277      C1278   1.342       .  D
C1278      H1280   1.086       .  S
C1281      C1282   1.205       .  T
C1283      H1285   1.086       .  S
C1283      C1284   1.344       .  D
C1284      H1286   1.085       .  S
C1287      H1289   1.086       .  S
C1287      C1288   1.342       .  D
C1288      H1290   1.086       .  S
C1291      C1292   1.207       .  T
C1293      H1295   1.086       .  S
C1293      C1294   1.341       .  D
C1294      H1296   1.087       .  S
C1297      H1299   1.086       .  S
C1297      C1298   1.349       .  D
C1298      H1300   1.085       .  S
C1301      C1302   1.214       .  T
C1303      H1305   1.088       .  S
C1303      C1304   1.338       .  D
C1304      H1306   1.086       .  S
C1307      C1308   1.206       .  T
C1309      H1311   1.085       .  S
C1309      C1310   1.341       .  D
C1310      H1312   1.086       .  S
C1313      C1314   1.206       .  T
C1315      H1317   1.088       .  S
C1315      C1316   1.336       .  D
C1316      H1318   1.086       .  S
C1319      H1321   1.086       .  S
C1319      C1320   1.345       .  D
C1320      H1322   1.083       .  S
C1323      C1324   1.208       .  T
C1325      H1327   1.086       .  S
C1325      C1326   1.344       .  D
C1326      H1328   1.086       .  S
C1329      H1331   1.086       .  S
C1329      C1330   1.343       .  D
C1330      H1332   1.086       .  S
C1333      C1334   1.208       .  T
C1335      H1337   1.085       .  S
C1335      C1336   1.346       .  D
C1336      H1338   1.086       .  S
C1339      H1341   1.086       .  S
C1339      C1340   1.342       .  D
C1340      H1342   1.086       .  S
C1343      C1344   1.208       .  T
C1345      H1347   1.085       .  S
C1345      C1346   1.344       .  D
C1346      H1348   1.086       .  S
C1349      H1351   1.084       .  S
C1349      C1350   1.348       .  D
C1350      H1352   1.084       .  S
C1353      C1354   1.206       .  T
C1355      C1356   1.210       .  T
C1357      H1359   1.086       .  S
C1357      C1358   1.340       .  D
C1358      H1360   1.087       .  S
C1361      H1363   1.087       .  S
C1361      C1362   1.338       .  D
C1362      H1364   1.089       .  S
C1365      C1366   1.210       .  T
C1367      H1369   1.086       .  S
C1367      C1368   1.339       .  D
C1368      H1370   1.087       .  S
C1371      H1373   1.086       .  S
C1371      C1372   1.341       .  D
C1372      H1374   1.087       .  S
C1375      C1376   1.211       .  T
C1377      H1379   1.086       .  S
C1377      C1378   1.344       .  D
C1378      H1380   1.086       .  S
C1381      H1383   1.086       .  S
C1381      C1382   1.345       .  D
C1382      H1384   1.085   1_554  S
C1385      C1386   1.208       .  T
C1387      H1389   1.086       .  S
C1387      C1388   1.343       .  D
C1388      H1390   1.086       .  S
C1391      H1393   1.086       .  S
C1391      C1392   1.340       .  D
C1392      H1394   1.087       .  S
C1395      C1396   1.204       .  T
C1397      H1399   1.083       .  S
C1397      C1398   1.346       .  D
C1398      H1400   1.086       .  S
