geometry optimzed in LAMMPS
_audit_creation_date              2020-12-01 
_audit_creation_method            'lammps2cif' 
_symmetry_space_group_name_H-M    'P1' 
_symmetry_Int_Tables_number       1 
_symmetry_cell_setting            triclinic 
loop_ 
_symmetry_equiv_pos_as_xyz 
  x,y,z 
_cell_length_a                    38.80946203 
_cell_length_b                    38.913266270558395 
_cell_length_c                    27.700144036634182 
_cell_angle_alpha                 89.61363935322686 
_cell_angle_beta                  90.54156311499352 
_cell_angle_gamma                 121.88620817251112 
loop_ 
_atom_site_label 
_atom_site_type_symbol 
_atom_site_fract_x 
_atom_site_fract_y 
_atom_site_fract_z 
_atom_site_charge 
O1          O  0.11012884  0.58654633  0.31679553    -0.57000
C2          C  0.19868068  0.68260988  0.36236589     0.75600
O3          O  0.21446312  0.62047227  0.42894825    -0.58100
C4          C  0.08795094  0.54975207  0.32881027     0.75600
C5          C  0.22454330  0.58618347  0.29185791     0.78000
Cd6        Cd  0.17269930  0.59900896  0.35478273     1.37500
O7          O  0.21166740  0.67004577  0.32940823    -0.57000
O8          O  0.20374737  0.60035471  0.27636429    -0.55800
C9          C  0.18643776  0.59572033  0.45663123     0.78000
O10         O  0.21923946  0.57533010  0.33573280    -0.58200
O11         O  0.16970978  0.65588733  0.38736850    -0.56600
O12         O  0.10578064  0.53466629  0.35062311    -0.56600
O13         O  0.15382512  0.56916861  0.43606752    -0.55800
O14         O  0.11155295  0.56100378  0.80090298    -0.57000
C15         C  0.20732397  0.55745538  0.77294404     0.75600
O16         O  0.15035091  0.59810451  0.68543639    -0.58100
C17         C  0.09545379  0.58189887  0.79590258     0.75600
C18         C  0.23175486  0.67900355  0.82698924     0.78000
Cd19       Cd  0.17751681  0.61072568  0.76699959     1.37500
O20         O  0.17895370  0.55055869  0.74418489    -0.57000
O21         O  0.21010578  0.64310339  0.84239409    -0.55800
C22         C  0.18385997  0.61518351  0.66360294     0.78000
O23         O  0.22762743  0.68441299  0.78250576    -0.58200
O24         O  0.21694852  0.58486512  0.80381949    -0.56600
O25         O  0.11818828  0.61739605  0.77950626    -0.56600
O26         O  0.21531446  0.63604586  0.68947341    -0.55800
O27         O  0.89739770  0.47176795  0.81884187    -0.57000
C28         C  0.78372714  0.38409689  0.87362763     0.75600
O29         O  0.83738387  0.48917774  0.94228217    -0.58100
C30         C  0.92303020  0.50821406  0.83022320     0.75600
C31         C  0.79480980  0.49042715  0.79381617     0.78000
Cd32       Cd  0.83982828  0.46811508  0.85819531     1.37500
O33         O  0.81060350  0.39471522  0.84133901    -0.57000
O34         O  0.80897866  0.46930664  0.78024400    -0.55800
C35         C  0.85338923  0.47042990  0.96000069     0.78000
O36         O  0.80330539  0.50339022  0.83694495    -0.58200
O37         O  0.78202607  0.41177999  0.89474599    -0.56600
O38         O  0.90919838  0.52739954  0.85094075    -0.56600
O39         O  0.86638378  0.45560986  0.93008038    -0.55800
O40         O  0.89283306  0.47302178  0.30419209    -0.57000
C41         C  0.77367846  0.44114805  0.26002718     0.75600
O42         O  0.83593177  0.40259763  0.18078367    -0.58100
C43         C  0.91374883  0.45708193  0.29747236     0.75600
C44         C  0.78103398  0.34883996  0.32686623     0.78000
Cd45       Cd  0.83131742  0.41843906  0.26626267     1.37500
O46         O  0.80133703  0.45779627  0.29220222    -0.57000
O47         O  0.80235431  0.38461105  0.34291540    -0.55800
C48         C  0.84708262  0.43808873  0.16581444     0.78000
O49         O  0.78515430  0.34418357  0.28228312    -0.58200
O50         O  0.77323522  0.41467838  0.23343991    -0.56600
O51         O  0.89556588  0.42193110  0.27914844    -0.56600
O52         O  0.85338930  0.46390540  0.19774880    -0.55800
O53         O  0.43608357  0.56531152  0.66429339    -0.57000
C54         C  0.34194758  0.55861471  0.71334467     0.75600
O55         O  0.40653890  0.63632431  0.77325675    -0.58100
C56         C  0.47361485  0.58310541  0.67425672     0.75600
C57         C  0.43847189  0.68168671  0.63113818     0.78000
Cd58       Cd  0.42569678  0.61764403  0.69789650     1.37500
O59         O  0.36951415  0.55801618  0.73710661    -0.57000
O60         O  0.42546426  0.64588009  0.61746073    -0.55800
C61         C  0.43256333  0.63447299  0.79908564     0.78000
O62         O  0.44736764  0.68863271  0.67559828    -0.58200
O63         O  0.35299693  0.58170436  0.67679843    -0.56600
O64         O  0.48938156  0.61797650  0.69268573    -0.56600
O65         O  0.45989870  0.63269964  0.77669457    -0.55800
O66         O  0.46535368  0.59300117  0.14066991    -0.57000
C67         C  0.47583488  0.68939637  0.09946622     0.75600
O68         O  0.40964625  0.57965510  0.02530967    -0.58100
C69         C  0.44533769  0.55543433  0.13188263     0.75600
C70         C  0.34714079  0.59150245  0.16700156     0.78000
Cd71       Cd  0.41459187  0.60580697  0.10684193     1.37500
O72         O  0.45190277  0.67623168  0.13506089    -0.57000
O73         O  0.38317076  0.60827087  0.18287661    -0.55800
C74         C  0.40313744  0.60476487  0.00440082     0.78000
O75         O  0.34175394  0.57964933  0.12353281    -0.58200
O76         O  0.47552250  0.66314852  0.07268425    -0.56600
O77         O  0.40964952  0.54078222  0.11565996    -0.56600
O78         O  0.39528775  0.62573504  0.03159536    -0.55800
O79         O  0.55599134  0.38964169  0.62715367    -0.57000
C80         C  0.56129551  0.50229599  0.63937366     0.75600
O81         O  0.67714604  0.49823859  0.62211924    -0.58100
C82         C  0.57308496  0.37932004  0.59653777     0.75600
C83         C  0.58396097  0.46128474  0.50553954     0.78000
Cd84       Cd  0.60187936  0.46275197  0.60711733     1.37500
O85         O  0.54787209  0.46547098  0.64944334    -0.57000
O86         O  0.55761990  0.44155501  0.53742683    -0.55800
C87         C  0.67417293  0.48821352  0.66636899     0.78000
O88         O  0.62001981  0.48540299  0.52097437    -0.58200
O89         O  0.59497989  0.52138153  0.61754857    -0.56600
O90         O  0.60417433  0.40728168  0.57553594    -0.56600
O91         O  0.63854541  0.46895389  0.68325297    -0.55800
O92         O  0.62035101  0.45348445  0.18298862    -0.57000
C93         C  0.51070638  0.45333653  0.16270940     0.75600
O94         O  0.51207591  0.33665436  0.17864647    -0.58100
C95         C  0.62834964  0.43425131  0.21387087     0.75600
C96         C  0.54944598  0.42934274  0.29982125     0.78000
Cd97       Cd  0.54710576  0.41084803  0.19877826     1.37500
O98         O  0.54794734  0.46637709  0.15568734    -0.57000
O99         O  0.56971703  0.45547144  0.26776813    -0.55800
C100        C  0.52503178  0.34264088  0.13545815     0.78000
O101        O  0.52372395  0.39370403  0.28470215    -0.58200
O102        O  0.49007891  0.41920816  0.18346827    -0.56600
O103        O  0.59876719  0.40382435  0.23401703    -0.56600
O104        O  0.54551473  0.37918459  0.12171816    -0.55800
O105        O  0.35924404  0.84755390  0.40171545    -0.57000
C106        C  0.46560133  0.92918253  0.45862067     0.75600
O107        O  0.44169555  0.79909196  0.45632302    -0.58100
C108        C  0.33280256  0.81772085  0.42598847     0.75600
C109        C  0.42192228  0.83112016  0.33150549     0.78000
Cd110      Cd  0.41684086  0.84451204  0.43304508     1.37500
O111        O  0.42739651  0.90850580  0.46270862    -0.57000
O112        O  0.39464737  0.80385497  0.35785594    -0.55800
C113        C  0.43201796  0.79602702  0.50041479     0.78000
O114        O  0.44919586  0.86239696  0.35339942    -0.58200
O115        O  0.48181547  0.91016973  0.44425519    -0.56600
O116        O  0.34578809  0.80392583  0.45809726    -0.56600
O117        O  0.41637198  0.81598150  0.51299070    -0.55800
O118        O  0.47030157  0.91310432  0.98242894    -0.57000
C119        C  0.48029826  0.82249303  0.02958404     0.75600
O120        O  0.39543148  0.80564539  0.09537426    -0.58100
C121        C  0.45203995  0.93045360  0.99575712     0.75600
C122        C  0.35708452  0.79836964  0.95408049     0.78000
Cd123      Cd  0.42318329  0.84762365  0.02041550     1.37500
O124        O  0.48599880  0.85353928  0.05121964    -0.57000
O125        O  0.39366733  0.81885374  0.94056349    -0.55800
C126        C  0.41130742  0.83631879  0.12279166     0.78000
O127        O  0.35088496  0.80114491  0.99840850    -0.58200
O128        O  0.45264286  0.80770881  0.99767239    -0.56600
O129        O  0.41892948  0.90857651  0.01784467    -0.56600
O130        O  0.42598455  0.87027314  0.10218702    -0.55800
O131        O  0.53860008  0.12376194  0.49040596    -0.57000
C132        C  0.56627581  0.23817612  0.54061906     0.75600
O133        O  0.61953549  0.19015433  0.61371975    -0.58100
C134        C  0.55315294  0.10178238  0.49882606     0.75600
C135        C  0.66015118  0.23277020  0.46073789     0.78000
Cd136      Cd  0.59414493  0.18498392  0.52837292     1.37500
O137        O  0.54644778  0.20823949  0.51226774    -0.57000
O138        O  0.62318224  0.21794525  0.44966625    -0.55800
C139        C  0.58447519  0.17597581  0.63202294     0.78000
O140        O  0.66691442  0.22420046  0.50279766    -0.58200
O141        O  0.59890887  0.24388466  0.55866096    -0.56600
O142        O  0.58785634  0.11909622  0.51891492    -0.56600
O143        O  0.55530821  0.16285068  0.60231582    -0.55800
O144        O  0.55531862  0.12797220  0.97895565    -0.57000
C145        C  0.63996778  0.24549099  0.93392719     0.75600
O146        O  0.53407911  0.18512478  0.85703259    -0.58100
C147        C  0.51828872  0.10248635  0.96934526     0.75600
C148        C  0.53228768  0.22866575  0.00785844     0.78000
Cd149      Cd  0.55666241  0.18639404  0.94288253     1.37500
O150        O  0.62969076  0.21692663  0.96409132    -0.57000
O151        O  0.55326332  0.21400957  0.02100447    -0.55800
C152        C  0.55988500  0.17778266  0.83964528     0.78000
O153        O  0.52042102  0.22236198  0.96404805    -0.58200
O154        O  0.61193612  0.24794373  0.91391295    -0.56600
O155        O  0.49832282  0.11650570  0.95040633    -0.56600
O156        O  0.58054549  0.17172247  0.87008164    -0.55800
C157        C  0.57752557  0.17571453  0.68512239     0.00700
C158        C  0.60772377  0.18084540  0.71776230    -0.11200
C159        C  0.60257487  0.18120298  0.76785194     0.02900
C160        C  0.56655115  0.17699319  0.78668750     0.00600
C161        C  0.53674823  0.17271982  0.75403322    -0.11100
C162        C  0.54166150  0.17182387  0.70400438     0.02800
H163        H  0.63555831  0.18436671  0.70411308     0.15800
H164        H  0.50917614  0.16981455  0.76764858     0.15800
C165        C  0.50947456  0.16782671  0.67327440     0.37400
C166        C  0.63535803  0.18662616  0.79860282     0.37300
N167        N  0.48350639  0.16457918  0.64894647    -0.42900
N168        N  0.66174297  0.19086499  0.82293242    -0.42900
C169        C  0.50023123  0.05841665  0.97759907     0.00700
C170        C  0.52632913  0.04363102  0.97929907    -0.11200
C171        C  0.51126578  0.00222987  0.98405048     0.02900
C172        C  0.46902482  0.97432567  0.98765853     0.00600
C173        C  0.44282525  0.98905874  0.98664386    -0.11100
C174        C  0.45793272  0.03057569  0.98142351     0.02800
H175        H  0.55887154  0.06453213  0.97632082     0.15800
H176        H  0.41034574  0.96805093  0.98999466     0.15800
C177        C  0.42942401  0.04374508  0.98150472     0.37400
C178        C  0.54010855  0.98953058  0.98703915     0.37300
N179        N  0.40664237  0.05438173  0.98165303    -0.42900
N180        N  0.56302479  0.97911688  0.98959628    -0.42900
C181        C  0.48920691  0.97337704  0.46888308     0.00700
C182        C  0.46794344  0.99337775  0.47188078    -0.11200
C183        C  0.48799238  0.03498136  0.48061716     0.02900
C184        C  0.53062393  0.05790048  0.48690608     0.00600
C185        C  0.55201036  0.03797213  0.48398663    -0.11100
C186        C  0.53189379  0.99625413  0.47492632     0.02800
H187        H  0.43520072  0.97642258  0.46721976     0.15800
H188        H  0.58471055  0.05504746  0.48894465     0.15800
C189        C  0.55590336  0.97789480  0.47327287     0.37400
C190        C  0.46353652  0.05274066  0.48448633     0.37300
N191        N  0.57537540  0.96342182  0.47207006    -0.42900
N192        N  0.44374795  0.06676047  0.48760446    -0.42900
C193        C  0.42081804  0.82855456  0.27776333     0.00700
C194        C  0.44998660  0.86274588  0.25209116    -0.11200
C195        C  0.44745740  0.86546782  0.20205768     0.02900
C196        C  0.41491594  0.83344431  0.17593236     0.00600
C197        C  0.38707962  0.79801957  0.20089659    -0.11100
C198        C  0.38955290  0.79533373  0.25137562     0.02800
H199        H  0.47463188  0.88824219  0.27129860     0.15800
H200        H  0.36274306  0.77271858  0.18110910     0.15800
C201        C  0.35917119  0.75842935  0.27478577     0.37400
C202        C  0.47955378  0.90136706  0.17861786     0.37300
N203        N  0.33474445  0.72876147  0.29332058    -0.42900
N204        N  0.50536116  0.93010402  0.15995870    -0.42900
C205        C  0.52398118  0.25343555  0.04161785     0.00700
C206        C  0.51619607  0.28230746  0.02253781    -0.11200
C207        C  0.51460447  0.31050348  0.05255081     0.02900
C208        C  0.51925667  0.30935420  0.10316686     0.00600
C209        C  0.52408004  0.27871864  0.12256624    -0.11100
C210        C  0.52730481  0.25154542  0.09251554     0.02800
H211        H  0.51354385  0.28436850  0.98381939     0.15800
H212        H  0.52806756  0.27765023  0.16120084     0.15800
C213        C  0.53578566  0.22321482  0.11509674     0.37400
C214        C  0.50911257  0.34096729  0.03029820     0.37300
N215        N  0.54309124  0.20082592  0.13306224    -0.42900
N216        N  0.50492933  0.36553139  0.01248945    -0.42900
C217        C  0.55814570  0.33711237  0.58384091     0.00700
C218        C  0.55483658  0.32756643  0.53446352    -0.11200
C219        C  0.55253655  0.29227983  0.51901847     0.02900
C220        C  0.55335159  0.26609578  0.55351361     0.00600
C221        C  0.55231840  0.27351581  0.60291481    -0.11100
C222        C  0.55480340  0.30888972  0.61839326     0.02800
H223        H  0.55736004  0.34934788  0.50780630     0.15800
H224        H  0.55338185  0.25344470  0.62951001     0.15800
C225        C  0.55922034  0.31786738  0.66936744     0.37400
C226        C  0.55488180  0.28641741  0.46800950     0.37300
N227        N  0.56307825  0.32508696  0.71023106    -0.42900
N228        N  0.55712011  0.28185131  0.42717692    -0.42900
C229        C  0.57302711  0.45489872  0.45305450     0.00700
C230        C  0.60179480  0.48063138  0.41900408    -0.11200
C231        C  0.59434704  0.47371138  0.36926839     0.02900
C232        C  0.55716382  0.43999501  0.35218293     0.00600
C233        C  0.52799047  0.41482595  0.38616616    -0.11100
C234        C  0.53527810  0.42197999  0.43591820     0.02800
H235        H  0.63080591  0.50597777  0.43126717     0.15800
H236        H  0.49934400  0.38900844  0.37382524     0.15800
C237        C  0.50355363  0.39407642  0.46813419     0.37400
C238        C  0.62660483  0.50082545  0.33710817     0.37300
N239        N  0.47800523  0.37170100  0.49380380    -0.42900
N240        N  0.65269579  0.52270792  0.31171324    -0.42900
C241        C  0.49963490  0.80043404  0.04620615     0.00700
C242        C  0.50291670  0.79686160  0.09640301    -0.11200
C243        C  0.50119988  0.76267331  0.11590713     0.02900
C244        C  0.49739256  0.73237214  0.08468003     0.00600
C245        C  0.50282262  0.74045971  0.03482412    -0.11100
C246        C  0.50304491  0.77379761  0.01532320     0.02800
H247        H  0.50125652  0.81772324  0.12060267     0.15800
H248        H  0.50122449  0.71801552  0.01031867     0.15800
C249        C  0.50232228  0.77753449  0.96348552     0.37400
C250        C  0.49906872  0.75733284  0.16769195     0.37300
N251        N  0.50154411  0.78041564  0.92193993    -0.42900
N252        N  0.49716289  0.75269613  0.20912167    -0.42900
C253        C  0.49304961  0.47810052  0.15020327     0.00700
C254        C  0.51953545  0.51973526  0.14161455    -0.11200
C255        C  0.50490214  0.54561804  0.13613080     0.02900
C256        C  0.46273903  0.52983704  0.13881181     0.00600
C257        C  0.43618090  0.48806557  0.14528590    -0.11100
C258        C  0.45077261  0.46220943  0.15092027     0.02800
H259        H  0.55205117  0.53247619  0.14046319     0.15800
H260        H  0.40370132  0.47546769  0.14633763     0.15800
C261        C  0.42134287  0.41955568  0.15685847     0.37400
C262        C  0.53386286  0.58797698  0.12683420     0.37300
N263        N  0.39743065  0.38542873  0.16148329    -0.42900
N264        N  0.55707410  0.62189500  0.11936927    -0.42900
C265        C  0.44124067  0.71316902  0.59749857     0.00700
C266        C  0.43652210  0.74392652  0.61612239    -0.11200
C267        C  0.43427135  0.77165385  0.58560662     0.02900
C268        C  0.43748830  0.76953248  0.53491713     0.00600
C269        C  0.44425118  0.73999109  0.51653265    -0.11100
C270        C  0.44579883  0.71183998  0.54704120     0.02800
H271        H  0.43307031  0.74547331  0.65471467     0.15800
H272        H  0.44717451  0.73802096  0.47791345     0.15800
C273        C  0.45224332  0.68204806  0.52539622     0.37400
C274        C  0.42823624  0.80159957  0.60764163     0.37300
N275        N  0.45738375  0.65819452  0.50791400    -0.42900
N276        N  0.42326957  0.82549912  0.62533784    -0.42900
C277        C  0.49708250  0.56330357  0.66597990     0.00700
C278        C  0.47553190  0.52137127  0.65743227    -0.11200
C279        C  0.49562755  0.50066467  0.65050171     0.02900
C280        C  0.53850586  0.52208319  0.65096314     0.00600
C281        C  0.56015109  0.56393724  0.65959098    -0.11100
C282        C  0.54003886  0.58452050  0.66780042     0.02800
H283        H  0.44259177  0.50440154  0.65647505     0.15800
H284        H  0.59308271  0.58070899  0.66016210     0.15800
C285        C  0.56454571  0.62736256  0.67763926     0.37400
C286        C  0.47128445  0.45768423  0.64133987     0.37300
N287        N  0.58442598  0.66164612  0.68580322    -0.42900
N288        N  0.45155459  0.42323247  0.63414504    -0.42900
C289        C  0.42836114  0.63027016  0.85238436     0.00700
C290        C  0.40491389  0.64270331  0.87618709    -0.11200
C291        C  0.39541152  0.63417979  0.92530481     0.02900
C292        C  0.40861050  0.61178183  0.95145530     0.00600
C293        C  0.43194415  0.59932747  0.92751601    -0.11100
C294        C  0.44212036  0.60849978  0.87886111     0.02800
H295        H  0.39357168  0.65886071  0.85618545     0.15800
H296        H  0.44302349  0.58276134  0.94713099     0.15800
C297        C  0.46524682  0.59347972  0.85682611     0.37400
C298        C  0.37170233  0.64839881  0.94751500     0.37300
N299        N  0.48372272  0.58141022  0.83915536    -0.42900
N300        N  0.35282923  0.65996577  0.96528849    -0.42900
C301        C  0.75198566  0.31523037  0.35925493     0.00700
C302        C  0.76023983  0.31883013  0.40911290    -0.11200
C303        C  0.73180886  0.29130629  0.44237807     0.02900
C304        C  0.69329873  0.25960122  0.42632954     0.00600
C305        C  0.68538863  0.25527562  0.37623936    -0.11100
C306        C  0.71442303  0.28220358  0.34277541     0.02800
H307        H  0.78895709  0.34389906  0.42241515     0.15800
H308        H  0.65614345  0.23097113  0.36312148     0.15800
C309        C  0.70411596  0.27624946  0.29201907     0.37400
C310        C  0.74246921  0.29779024  0.49296492     0.37300
N311        N  0.69607260  0.27144398  0.25128641    -0.42900
N312        N  0.75127811  0.30307950  0.53345989    -0.42900
C313        C  0.74233709  0.45072714  0.25263598     0.00700
C314        C  0.73620865  0.45974966  0.20536063    -0.11200
C315        C  0.70027254  0.45754963  0.19227967     0.02900
C316        C  0.66982025  0.44582640  0.22704900     0.00600
C317        C  0.67726196  0.43973263  0.27519817    -0.11100
C318        C  0.71319026  0.44188039  0.28820798     0.02800
H319        H  0.75827821  0.46555781  0.17777301     0.15800
H320        H  0.65386182  0.43083982  0.30214343     0.15800
C321        C  0.71719502  0.43009947  0.33650691     0.37400
C322        C  0.69376655  0.46307368  0.14214850     0.37300
N323        N  0.72016657  0.42025095  0.37506080    -0.42900
N324        N  0.68854502  0.46731335  0.10190919    -0.42900
C325        C  0.70970899  0.49652121  0.69700258     0.00700
C326        C  0.70904722  0.50303461  0.74679176    -0.11200
C327        C  0.73821573  0.50432520  0.77856097     0.02900
C328        C  0.76828800  0.49757126  0.76099574     0.00600
C329        C  0.77028593  0.49336518  0.71081189    -0.11100
C330        C  0.74188852  0.49338775  0.67888154     0.02800
H331        H  0.68488648  0.50608184  0.76122551     0.15800
H332        H  0.79350105  0.48879740  0.69645238     0.15800
C333        C  0.74498563  0.48736045  0.62811942     0.37400
C334        C  0.73507197  0.51047343  0.82927239     0.37300
N335        N  0.74758719  0.48261927  0.58742630    -0.42900
N336        N  0.73270635  0.51560851  0.86990529    -0.42900
C337        C  0.75434613  0.34186311  0.88658697     0.00700
C338        C  0.74940443  0.33120973  0.93584049    -0.11200
C339        C  0.71375461  0.29672154  0.95228214     0.02900
C340        C  0.68201058  0.27404087  0.91921632     0.00600
C341        C  0.68880177  0.28245661  0.86961927    -0.11100
C342        C  0.72512197  0.31550133  0.85298113     0.02800
H343        H  0.77232695  0.35125314  0.96177554     0.15800
H344        H  0.66468838  0.26441743  0.84389896     0.15800
C345        C  0.72996270  0.32371576  0.80180092     0.37400
C346        C  0.70932499  0.28714862  0.00315385     0.37300
N347        N  0.73378914  0.32988162  0.76068112    -0.42900
N348        N  0.70605596  0.27923245  0.04386916    -0.42900
C349        C  0.85146601  0.44879000  0.11362947     0.00700
C350        C  0.85747345  0.42511565  0.08104855    -0.11200
C351        C  0.85938587  0.43231667  0.03127983     0.02900
C352        C  0.85508160  0.46401082  0.01277566     0.00600
C353        C  0.84950679  0.48800902  0.04539601    -0.11100
C354        C  0.84789225  0.48096202  0.09527721     0.02800
H355        H  0.86020522  0.40037229  0.09449260     0.15800
H356        H  0.84586591  0.51216758  0.03185294     0.15800
C357        C  0.84093720  0.50645095  0.12614291     0.37400
C358        C  0.86382160  0.40515249  0.00036413     0.37300
N359        N  0.83547253  0.52722783  0.15035662    -0.42900
N360        N  0.86727228  0.38322627  0.97578768    -0.42900
C361        C  0.26125801  0.71216059  0.85947087     0.00700
C362        C  0.29547268  0.74650829  0.83976969    -0.11200
C363        C  0.32636892  0.77592426  0.86966984     0.02900
C364        C  0.32349073  0.77111754  0.92050532     0.00600
C365        C  0.28820121  0.73805272  0.94004940    -0.11100
C366        C  0.25734000  0.70885119  0.91033525     0.02800
H367        H  0.29866518  0.74991934  0.80090419     0.15800
H368        H  0.28511159  0.73425632  0.97888798     0.15800
C369        C  0.22190790  0.67590455  0.93340276     0.37400
C370        C  0.36007473  0.81109202  0.84714721     0.37300
N371        N  0.19348830  0.64953542  0.95187839    -0.42900
N372        N  0.38683625  0.83943058  0.82900183    -0.42900
C373        C  0.23225740  0.53945752  0.76554824     0.00700
C374        C  0.23236353  0.52536147  0.71889262    -0.11200
C375        C  0.26667271  0.52632776  0.70177119     0.02900
C376        C  0.30046598  0.53953266  0.73239106     0.00600
C377        C  0.29698139  0.54573702  0.78156933    -0.11100
C378        C  0.26353828  0.54658130  0.79826076     0.02800
H379        H  0.20806833  0.51863789  0.69365580     0.15800
H380        H  0.32270607  0.55535955  0.80564948     0.15800
C381        C  0.26464213  0.55953704  0.84735183     0.37400
C382        C  0.26793846  0.51710306  0.65169143     0.37300
N383        N  0.26583115  0.57038106  0.88648758    -0.42900
N384        N  0.26894966  0.50970568  0.61153267    -0.42900
C385        C  0.05182522  0.56450413  0.80669411     0.00700
C386        C  0.02652262  0.52221039  0.80957534    -0.11200
C387        C  0.98482327  0.50344401  0.81712306     0.02900
C388        C  0.96710934  0.52704852  0.82127545     0.00600
C389        C  0.99247217  0.56945751  0.81970970    -0.11100
C390        C  0.03445879  0.58831149  0.81265361     0.02800
H391        H  0.03931787  0.50343597  0.80576242     0.15800
H392        H  0.97949538  0.58802386  0.82414709     0.15800
C393        C  0.05892130  0.63198164  0.81339077     0.37400
C394        C  0.96153017  0.45997608  0.82285993     0.37300
N395        N  0.07846050  0.66698241  0.81434708    -0.42900
N396        N  0.94297989  0.42519371  0.82787032    -0.42900
C397        C  0.31366002  0.58682621  0.19795706     0.00700
C398        C  0.31759981  0.58587363  0.24836150    -0.11200
C399        C  0.28821698  0.58378488  0.27947125     0.02900
C400        C  0.25429602  0.58389084  0.26041747     0.00600
C401        C  0.25013467  0.58444366  0.20994658    -0.11100
C402        C  0.27892395  0.58525148  0.17879140     0.02800
H403        H  0.34389248  0.58678015  0.26368679     0.15800
H404        H  0.22428052  0.58439369  0.19463234     0.15800
C405        C  0.27251511  0.58567588  0.12740839     0.37400
C406        C  0.29450611  0.58271720  0.33078837     0.37300
N407        N  0.26722521  0.58575055  0.08622549    -0.42900
N408        N  0.29947386  0.58158973  0.37189189    -0.42900
C409        C  0.22067315  0.72572536  0.37613891     0.00700
C410        C  0.22431805  0.73436597  0.42581009    -0.11200
C411        C  0.25912838  0.76873573  0.44405560     0.02900
C412        C  0.28957576  0.79565432  0.41191269     0.00600
C413        C  0.28106725  0.79168409  0.36214620    -0.11100
C414        C  0.24739416  0.75632937  0.34388603     0.02800
H415        H  0.20327159  0.71157631  0.45102957     0.15800
H416        H  0.30380371  0.81293939  0.33702000     0.15800
C417        C  0.24403317  0.75012623  0.29229267     0.37400
C418        C  0.26511060  0.77311051  0.49571318     0.37300
N419        N  0.24181103  0.74522513  0.25094517    -0.42900
N420        N  0.26997779  0.77644054  0.53710902    -0.42900
C421        C  0.04339530  0.52598002  0.31937396     0.00700
C422        C  0.02098317  0.48426625  0.32992987    -0.11200
C423        C  0.97873469  0.46099701  0.32329055     0.02900
C424        C  0.95787508  0.47977034  0.30753854     0.00600
C425        C  0.98006307  0.52132302  0.29742601    -0.11100
C426        C  0.02231674  0.54425457  0.30198964     0.02800
H427        H  0.03648934  0.46960122  0.34307307     0.15800
H428        H  0.96438330  0.53578059  0.28402162     0.15800
C429        C  0.04284624  0.58617509  0.28729674     0.37400
C430        C  0.95760285  0.41814118  0.33342100     0.37300
N431        N  0.05911604  0.61960219  0.27487234    -0.42900
N432        N  0.94079839  0.38375929  0.34127742    -0.42900
C433        C  0.18992130  0.59916753  0.51021735     0.00700
C434        C  0.15773294  0.56914212  0.53771672    -0.11200
C435        C  0.15533364  0.57379422  0.58732721     0.02900
C436        C  0.18586226  0.60919806  0.61102794     0.00600
C437        C  0.21939094  0.63817325  0.58429842    -0.11100
C438        C  0.22156752  0.63374444  0.53432931     0.02800
H439        H  0.13347782  0.54220370  0.52017012     0.15800
H440        H  0.24342530  0.66502703  0.60221224     0.15800
C441        C  0.25573466  0.66616281  0.50885048     0.37400
C442        C  0.12121938  0.54126024  0.61282534     0.37300
N443        N  0.28309951  0.69230208  0.48858840    -0.42900
N444        N  0.09384238  0.51519500  0.63314997    -0.42900
loop_ 
_geom_bond_atom_site_label_1 
_geom_bond_atom_site_label_2 
_geom_bond_distance 
_geom_bond_site_symmetry_2 
_ccdc_geom_bond_type 
O1            C4   1.264       .  A
O1           Cd6   2.440       .  S
C2           O11   1.263       .  A
C2            O7   1.266       .  A
C2          C409   1.476       .  S
O3            C9   1.264       .  A
O3           Cd6   2.465       .  S
C4           O12   1.267       .  A
C4          C421   1.490       .  S
C5           O10   1.266       .  A
C5            O8   1.265       .  A
C5          C400   1.493       .  S
Cd6          O13   2.460       .  S
Cd6          O12   2.481       .  S
Cd6          O11   2.455       .  S
Cd6           O7   2.449       .  S
Cd6          O10   2.484       .  S
Cd6           O8   2.481       .  S
C9           O13   1.268       .  A
C9          C433   1.490       .  S
O14          C17   1.267       .  A
O14         Cd19   2.443       .  S
C15          O24   1.263       .  A
C15          O20   1.262       .  A
C15         C373   1.480       .  S
O16          C22   1.263       .  A
O16         Cd19   2.425       .  S
C17          O25   1.267       .  A
C17         C385   1.487       .  S
C18          O23   1.271       .  A
C18          O21   1.264       .  A
C18         C361   1.490       .  S
Cd19         O26   2.498       .  S
Cd19         O25   2.477       .  S
Cd19         O24   2.445       .  S
Cd19         O20   2.458       .  S
Cd19         O23   2.510       .  S
Cd19         O21   2.419       .  S
C22          O26   1.268       .  A
C22         C436   1.486       .  S
O27          C30   1.269       .  A
O27         Cd32   2.431       .  S
C28          O37   1.261       .  A
C28          O33   1.271       .  A
C28         C337   1.466       .  S
O29          C35   1.276       .  A
O29         Cd32   2.494       .  S
C30          O38   1.269       .  A
C30         C388   1.485       .  S
C31          O36   1.271       .  A
C31          O34   1.267       .  A
C31         C328   1.498       .  S
Cd32         O39   2.396       .  S
Cd32         O38   2.460       .  S
Cd32         O37   2.383       .  S
Cd32         O33   2.500       .  S
Cd32         O36   2.504       .  S
Cd32         O34   2.471       .  S
C35          O39   1.263       .  A
C35         C352   1.488   1_556  S
O40          C43   1.271       .  A
O40         Cd45   2.437       .  S
C41          O50   1.263       .  A
C41          O46   1.273       .  A
C41         C313   1.461       .  S
O42          C48   1.277       .  A
O42         Cd45   2.482       .  S
C43          O51   1.269       .  A
C43         C424   1.479       .  S
C44          O49   1.273       .  A
C44          O47   1.267       .  A
C44         C301   1.494       .  S
Cd45         O52   2.419       .  S
Cd45         O51   2.447       .  S
Cd45         O50   2.355       .  S
Cd45         O46   2.476       .  S
Cd45         O49   2.507       .  S
Cd45         O47   2.439       .  S
C48          O52   1.265       .  A
C48         C349   1.488       .  S
O53          C56   1.268       .  A
O53         Cd58   2.465       .  S
C54          O63   1.267       .  A
C54          O59   1.261       .  A
C54         C376   1.473       .  S
O55          C61   1.265       .  A
O55         Cd58   2.462       .  S
C56          O64   1.266       .  A
C56         C277   1.491       .  S
C57          O62   1.268       .  A
C57          O60   1.265       .  A
C57         C265   1.493       .  S
Cd58         O65   2.452       .  S
Cd58         O64   2.470       .  S
Cd58         O63   2.464       .  S
Cd58         O59   2.446       .  S
Cd58         O62   2.500       .  S
Cd58         O60   2.480       .  S
C61          O65   1.267       .  A
C61         C289   1.485       .  S
O66          C69   1.265       .  A
O66         Cd71   2.450       .  S
C67          O76   1.261       .  A
C67          O72   1.267       .  A
C67         C244   1.478       .  S
O68          C74   1.267       .  A
O68         Cd71   2.447       .  S
C69          O77   1.266       .  A
C69         C256   1.480       .  S
C70          O75   1.268       .  A
C70          O73   1.266       .  A
C70         C397   1.492       .  S
Cd71         O78   2.464       .  S
Cd71         O77   2.445       .  S
Cd71         O76   2.430       .  S
Cd71         O72   2.456       .  S
Cd71         O75   2.494       .  S
Cd71         O73   2.471       .  S
C74          O78   1.265       .  A
C74         C292   1.487   1_554  S
O79          C82   1.272       .  A
O79         Cd84   2.494       .  S
C80          O89   1.269       .  A
C80          O85   1.269       .  A
C80         C280   1.485       .  S
O81          C87   1.271       .  A
O81         Cd84   2.517       .  S
C82          O90   1.263       .  A
C82         C217   1.468       .  S
C83          O88   1.276       .  A
C83          O86   1.262       .  A
C83         C229   1.496       .  S
Cd84         O91   2.474       .  S
Cd84         O90   2.380       .  S
Cd84         O89   2.453       .  S
Cd84         O85   2.462       .  S
Cd84         O88   2.513       .  S
Cd84         O86   2.412       .  S
C87          O91   1.267       .  A
C87         C325   1.496       .  S
O92          C95   1.273       .  A
O92         Cd97   2.461       .  S
C93         O102   1.269       .  A
C93          O98   1.270       .  A
C93         C253   1.486       .  S
O94         C100   1.274       .  A
O94         Cd97   2.521       .  S
C95         O103   1.264       .  A
C95         C316   1.467       .  S
C96         O101   1.278       .  A
C96          O99   1.264       .  A
C96         C232   1.495       .  S
Cd97        O104   2.456       .  S
Cd97        O103   2.363       .  S
Cd97        O102   2.434       .  S
Cd97         O98   2.447       .  S
Cd97        O101   2.513       .  S
Cd97         O99   2.417       .  S
C100        O104   1.266       .  A
C100        C208   1.494       .  S
O105        C108   1.264       .  A
O105       Cd110   2.451       .  S
C106        O115   1.266       .  A
C106        O111   1.265       .  A
C106        C181   1.488       .  S
O107        C113   1.267       .  A
O107       Cd110   2.499       .  S
C108        O116   1.267       .  A
C108        C412   1.474       .  S
C109        O114   1.267       .  A
C109        O112   1.264       .  A
C109        C193   1.491       .  S
Cd110       O117   2.466       .  S
Cd110       O116   2.450       .  S
Cd110       O115   2.484       .  S
Cd110       O111   2.447       .  S
Cd110       O114   2.457       .  S
Cd110       O112   2.481       .  S
C113        O117   1.264       .  A
C113        C268   1.495       .  S
O118        C121   1.268       .  A
O118       Cd123   2.454   1_556  S
C119        O128   1.265   1_554  A
C119        O124   1.262       .  A
C119        C241   1.477       .  S
O120        C126   1.268       .  A
O120       Cd123   2.505       .  S
C121        O129   1.266   1_556  A
C121        C172   1.486       .  S
C122        O127   1.270       .  A
C122        O125   1.266       .  A
C122        C364   1.490       .  S
Cd123       O130   2.417       .  S
Cd123       O129   2.464       .  S
Cd123       O128   2.453   1_554  S
Cd123       O124   2.469       .  S
Cd123       O127   2.477   1_554  S
Cd123       O125   2.468   1_554  S
C126        O130   1.264       .  A
C126        C196   1.486       .  S
O131        C134   1.269       .  A
O131       Cd136   2.448       .  S
C132        O141   1.263       .  A
C132        O137   1.273       .  A
C132        C220   1.464       .  S
O133        C139   1.276       .  A
O133       Cd136   2.521       .  S
C134        O142   1.269       .  A
C134        C184   1.488       .  S
C135        O140   1.272       .  A
C135        O138   1.267       .  A
C135        C304   1.498       .  S
Cd136       O143   2.423       .  S
Cd136       O142   2.459       .  S
Cd136       O141   2.359       .  S
Cd136       O137   2.489       .  S
Cd136       O140   2.505       .  S
Cd136       O138   2.480       .  S
C139        O143   1.264       .  A
C139        C157   1.497       .  S
O144        C147   1.269       .  A
O144       Cd149   2.452       .  S
C145        O154   1.264       .  A
C145        O150   1.272       .  A
C145        C340   1.468       .  S
O146        C152   1.277       .  A
O146       Cd149   2.518       .  S
C147        O155   1.268       .  A
C147        C169   1.487       .  S
C148        O153   1.272   1_554  A
C148        O151   1.266       .  A
C148        C205   1.501       .  S
Cd149       O156   2.421       .  S
Cd149       O155   2.462       .  S
Cd149       O154   2.358       .  S
Cd149       O150   2.492       .  S
Cd149       O153   2.527       .  S
Cd149       O151   2.458   1_556  S
C152        O156   1.262       .  A
C152        C160   1.495       .  S
C157        C158   1.402       .  A
C157        C162   1.423       .  A
C158        C159   1.405       .  A
C158        H163   1.086       .  S
C159        C160   1.423       .  A
C159        C166   1.445       .  S
C160        C161   1.401       .  A
C161        C162   1.404       .  A
C161        H164   1.086       .  S
C162        C165   1.444       .  S
C165        N167   1.157       .  T
C166        N168   1.158       .  T
C169        C170   1.405       .  A
C169        C174   1.415       .  A
C170        C171   1.399       .  A
C170        H175   1.086       .  S
C171        C172   1.413   1_545  A
C171        C178   1.444   1_545  S
C172        C173   1.407       .  A
C173        C174   1.404   1_565  A
C173        H176   1.086       .  S
C174        C177   1.444       .  S
C177        N179   1.157       .  T
C178        N180   1.157       .  T
C181        C182   1.405       .  A
C181        C186   1.416       .  A
C182        C183   1.399   1_565  A
C182        H187   1.086       .  S
C183        C184   1.415       .  A
C183        C190   1.444       .  S
C184        C185   1.407       .  A
C185        C186   1.404   1_545  A
C185        H188   1.085       .  S
C186        C189   1.444       .  S
C189        N191   1.157       .  T
C190        N192   1.157       .  T
C193        C194   1.403       .  A
C193        C198   1.420       .  A
C194        C195   1.396       .  A
C194        H199   1.085       .  S
C195        C196   1.416       .  A
C195        C202   1.445       .  S
C196        C197   1.405       .  A
C197        C198   1.408       .  A
C197        H200   1.085       .  S
C198        C201   1.444       .  S
C201        N203   1.158       .  T
C202        N204   1.157       .  T
C205        C206   1.407       .  A
C205        C210   1.419       .  A
C206        C207   1.408       .  A
C206        H211   1.083   1_554  S
C207        C208   1.415       .  A
C207        C214   1.444       .  S
C208        C209   1.404       .  A
C209        C210   1.407       .  A
C209        H212   1.084       .  S
C210        C213   1.444       .  S
C213        N215   1.157       .  T
C214        N216   1.157       .  T
C217        C218   1.407       .  A
C217        C222   1.406       .  A
C218        C219   1.398       .  A
C218        H223   1.086       .  S
C219        C220   1.404       .  A
C219        C226   1.444       .  S
C220        C221   1.406       .  A
C221        C222   1.398       .  A
C221        H224   1.086       .  S
C222        C225   1.444       .  S
C225        N227   1.157       .  T
C226        N228   1.157       .  T
C229        C230   1.402       .  A
C229        C234   1.423       .  A
C230        C231   1.403       .  A
C230        H235   1.086       .  S
C231        C232   1.422       .  A
C231        C238   1.445       .  S
C232        C233   1.401       .  A
C233        C234   1.404       .  A
C233        H236   1.086       .  S
C234        C237   1.444       .  S
C237        N239   1.157       .  T
C238        N240   1.157       .  T
C241        C242   1.408       .  A
C241        C246   1.408       .  A
C242        C243   1.401       .  A
C242        H247   1.084       .  S
C243        C244   1.410       .  A
C243        C250   1.445       .  S
C244        C245   1.407       .  A
C245        C246   1.398       .  A
C245        H248   1.085       .  S
C246        C249   1.444   1_554  S
C249        N251   1.157       .  T
C250        N252   1.157       .  T
C253        C254   1.406       .  A
C253        C258   1.415       .  A
C254        C255   1.400       .  A
C254        H259   1.086       .  S
C255        C256   1.414       .  A
C255        C262   1.445       .  S
C256        C257   1.402       .  A
C257        C258   1.398       .  A
C257        H260   1.085       .  S
C258        C261   1.443       .  S
C261        N263   1.157       .  T
C262        N264   1.158       .  T
C265        C266   1.405       .  A
C265        C270   1.415       .  A
C266        C267   1.404       .  A
C266        H271   1.085       .  S
C267        C268   1.418       .  A
C267        C274   1.444       .  S
C268        C269   1.407       .  A
C269        C270   1.405       .  A
C269        H272   1.084       .  S
C270        C273   1.444       .  S
C273        N275   1.157       .  T
C274        N276   1.157       .  T
C277        C278   1.406       .  A
C277        C282   1.417       .  A
C278        C279   1.401       .  A
C278        H283   1.086       .  S
C279        C280   1.414       .  A
C279        C286   1.444       .  S
C280        C281   1.404       .  A
C281        C282   1.403       .  A
C281        H284   1.085       .  S
C282        C285   1.444       .  S
C285        N287   1.157       .  T
C286        N288   1.157       .  T
C289        C290   1.406       .  A
C289        C294   1.415       .  A
C290        C291   1.404       .  A
C290        H295   1.086       .  S
C291        C292   1.415       .  A
C291        C298   1.444       .  S
C292        C293   1.405       .  A
C293        C294   1.398       .  A
C293        H296   1.086       .  S
C294        C297   1.445       .  S
C297        N299   1.158       .  T
C298        N300   1.157       .  T
C301        C302   1.406       .  A
C301        C306   1.415       .  A
C302        C303   1.404       .  A
C302        H307   1.085       .  S
C303        C304   1.414       .  A
C303        C310   1.443       .  S
C304        C305   1.410       .  A
C305        C306   1.409       .  A
C305        H308   1.085       .  S
C306        C309   1.444       .  S
C309        N311   1.158       .  T
C310        N312   1.157       .  T
C313        C314   1.404       .  A
C313        C318   1.405       .  A
C314        C315   1.396       .  A
C314        H319   1.084       .  S
C315        C316   1.407       .  A
C315        C322   1.444       .  S
C316        C317   1.407       .  A
C317        C318   1.396       .  A
C317        H320   1.086       .  S
C318        C321   1.445       .  S
C321        N323   1.157       .  T
C322        N324   1.157       .  T
C325        C326   1.407       .  A
C325        C330   1.414       .  A
C326        C327   1.407       .  A
C326        H331   1.086       .  S
C327        C328   1.416       .  A
C327        C334   1.444       .  S
C328        C329   1.408       .  A
C329        C330   1.407       .  A
C329        H332   1.086       .  S
C330        C333   1.444       .  S
C333        N335   1.157       .  T
C334        N336   1.157       .  T
C337        C338   1.408       .  A
C337        C342   1.403       .  A
C338        C339   1.402       .  A
C338        H343   1.085       .  S
C339        C340   1.406       .  A
C339        C346   1.444   1_556  S
C340        C341   1.405       .  A
C341        C342   1.394       .  A
C341        H344   1.085       .  S
C342        C345   1.443       .  S
C345        N347   1.157       .  T
C346        N348   1.157       .  T
C349        C350   1.400       .  A
C349        C354   1.421       .  A
C350        C351   1.400       .  A
C350        H355   1.086       .  S
C351        C352   1.421       .  A
C351        C358   1.445       .  S
C352        C353   1.401       .  A
C353        C354   1.402       .  A
C353        H356   1.086       .  S
C354        C357   1.444       .  S
C357        N359   1.157       .  T
C358        N360   1.157   1_554  T
C361        C362   1.406       .  A
C361        C366   1.416       .  A
C362        C363   1.406       .  A
C362        H367   1.084       .  S
C363        C364   1.417       .  A
C363        C370   1.444       .  S
C364        C365   1.403       .  A
C365        C366   1.400       .  A
C365        H368   1.084       .  S
C366        C369   1.444       .  S
C369        N371   1.157       .  T
C370        N372   1.157       .  T
C373        C374   1.408       .  A
C373        C378   1.414       .  A
C374        C375   1.399       .  A
C374        H379   1.084       .  S
C375        C376   1.406       .  A
C375        C382   1.443       .  S
C376        C377   1.405       .  A
C377        C378   1.399       .  A
C377        H380   1.085       .  S
C378        C381   1.446       .  S
C381        N383   1.158       .  T
C382        N384   1.157       .  T
C385        C386   1.404       .  A
C385        C390   1.415       .  A
C386        C387   1.397   1_455  A
C386        H391   1.085       .  S
C387        C388   1.414       .  A
C387        C394   1.445       .  S
C388        C389   1.406       .  A
C389        C390   1.405   1_655  A
C389        H392   1.085       .  S
C390        C393   1.444       .  S
C393        N395   1.157       .  T
C394        N396   1.157       .  T
C397        C398   1.405       .  A
C397        C402   1.415       .  A
C398        C399   1.403       .  A
C398        H403   1.085       .  S
C399        C400   1.416       .  A
C399        C406   1.444       .  S
C400        C401   1.407       .  A
C401        C402   1.405       .  A
C401        H404   1.085       .  S
C402        C405   1.444       .  S
C405        N407   1.157       .  T
C406        N408   1.157       .  T
C409        C410   1.407       .  A
C409        C414   1.411       .  A
C410        C411   1.399       .  A
C410        H415   1.086       .  S
C411        C412   1.409       .  A
C411        C418   1.444       .  S
C412        C413   1.405       .  A
C413        C414   1.398       .  A
C413        H416   1.086       .  S
C414        C417   1.444       .  S
C417        N419   1.157       .  T
C418        N420   1.157       .  T
C421        C422   1.408       .  A
C421        C426   1.417       .  A
C422        C423   1.404   1_455  A
C422        H427   1.085       .  S
C423        C424   1.412       .  A
C423        C430   1.444       .  S
C424        C425   1.401       .  A
C425        C426   1.398   1_655  A
C425        H428   1.086       .  S
C426        C429   1.444       .  S
C429        N431   1.157       .  T
C430        N432   1.157       .  T
C433        C434   1.404       .  A
C433        C438   1.420       .  A
C434        C435   1.398       .  A
C434        H439   1.085       .  S
C435        C436   1.416       .  A
C435        C442   1.445       .  S
C436        C437   1.403       .  A
C437        C438   1.405       .  A
C437        H440   1.085       .  S
C438        C441   1.444       .  S
C441        N443   1.158       .  T
C442        N444   1.157       .  T
