geometry optimzed in LAMMPS
_audit_creation_date              2020-12-01 
_audit_creation_method            'lammps2cif' 
_symmetry_space_group_name_H-M    'P1' 
_symmetry_Int_Tables_number       1 
_symmetry_cell_setting            triclinic 
loop_ 
_symmetry_equiv_pos_as_xyz 
  x,y,z 
_cell_length_a                    52.67731229 
_cell_length_b                    52.83984143325275 
_cell_length_c                    52.48018310330271 
_cell_angle_alpha                 89.90804680626199 
_cell_angle_beta                  90.03254484079893 
_cell_angle_gamma                 90.16644985257619 
loop_ 
_atom_site_label 
_atom_site_type_symbol 
_atom_site_fract_x 
_atom_site_fract_y 
_atom_site_fract_z 
_atom_site_charge 
C1          C  0.05954861  0.66807184  0.94467138     0.80100
N2          N  0.07963794  0.67951169  0.95618573    -0.78200
C3          C  0.08891330  0.70189412  0.94733404     0.82600
N4          N  0.07751004  0.71313805  0.92699206    -0.78100
C5          C  0.05741513  0.70186106  0.91519017     0.82700
N6          N  0.04857491  0.67932150  0.92413631    -0.79900
C7          C  0.86662369  0.67061243  0.94368236     0.80100
N8          N  0.87811109  0.68181450  0.92335699    -0.78200
C9          C  0.86955014  0.70433074  0.91401184     0.82600
N10         N  0.84923386  0.71563013  0.92517312    -0.78100
C11         C  0.83726426  0.70448239  0.94521501     0.82700
N12         N  0.84612655  0.68204698  0.95432872    -0.79900
C13         C  0.86667235  0.66767439  0.13202338     0.80100
N14         N  0.87814172  0.67864179  0.15250730    -0.78200
C15         C  0.86878341  0.70044901  0.16266419     0.82600
N16         N  0.84798706  0.71126800  0.15199316    -0.78100
C17         C  0.83615897  0.70044643  0.13179626     0.82700
N18         N  0.84567457  0.67871874  0.12179672    -0.79900
C19         C  0.05536926  0.67178582  0.12742957     0.80100
N20         N  0.04356316  0.68393042  0.14696422    -0.78200
C21         C  0.05398931  0.70500320  0.15763835     0.82600
N22         N  0.07632495  0.71404342  0.14856618    -0.78100
C23         C  0.08850657  0.70208048  0.12928995     0.82700
N24         N  0.07778756  0.68116410  0.11854618    -0.79900
C25         C  0.87146050  0.36817482  0.13405446     0.80100
N26         N  0.88187157  0.35686412  0.15483505    -0.78200
C27         C  0.87150809  0.33535242  0.16463002     0.82600
N28         N  0.85093633  0.32479531  0.15313002    -0.78100
C29         C  0.84029817  0.33591052  0.13233680     0.82700
N30         N  0.85062978  0.35765822  0.12294627    -0.79900
C31         C  0.87018299  0.36696775  0.94034200     0.80100
N32         N  0.84964037  0.35617598  0.95158322    -0.78200
C33         C  0.84050715  0.33346946  0.94350413     0.82600
N34         N  0.85242634  0.32121789  0.92406762    -0.78100
C35         C  0.87270753  0.33211051  0.91221813     0.82700
N36         N  0.88161748  0.35474684  0.92074473    -0.79900
C37         C  0.06076509  0.36948217  0.94169728     0.80100
N38         N  0.08130487  0.35845996  0.95281738    -0.78200
C39         C  0.09163823  0.33690142  0.94311924     0.82600
N40         N  0.08093296  0.32624562  0.92212413    -0.78100
C41         C  0.06067840  0.33722348  0.91049909     0.82700
N42         N  0.05065032  0.35874610  0.92047182    -0.79900
C43         C  0.05672190  0.36865875  0.13037754     0.80100
N44         N  0.07724166  0.35688734  0.12028739    -0.78200
C45         C  0.08657435  0.33537556  0.13088105     0.82600
N46         N  0.07472039  0.32514756  0.15147830    -0.78100
C47         C  0.05446204  0.33696160  0.16219853     0.82700
N48         N  0.04550864  0.35871105  0.15150300    -0.79900
O49         O  0.01151630  0.56360464  0.08461190    -0.75400
O50         O  0.98620946  0.59181025  0.06365054    -0.54300
C51         C  0.00399891  0.58633478  0.07950210     0.78300
O52         O  0.01146999  0.47588322  0.98315897    -0.60000
O53         O  0.99097338  0.44647987  0.00756599    -0.53000
C54         C  0.00644307  0.45283235  0.98963411     0.70300
O55         O  0.01342871  0.56145505  0.98654941    -0.74600
O56         O  0.98961559  0.59028613  0.00837754    -0.55100
C57         C  0.00730010  0.58425739  0.99266701     0.76300
O58         O  0.01213490  0.47700393  0.08747067    -0.59700
O59         O  0.99184446  0.44731891  0.06324594    -0.52800
C60         C  0.00755135  0.45388766  0.08082573     0.72900
Zr61       Zr  0.99899172  0.51978372  0.07402240     2.54700
O62         O  0.04506239  0.52091952  0.07755662    -0.80300
O63         O  0.99410883  0.52172410  0.12011540    -0.93700
Zr64       Zr  0.99987811  0.51854624  0.99780517     2.64700
O65         O  0.04586458  0.51507713  0.00070361    -0.98600
O66         O  0.99892714  0.52091350  0.95146211    -0.80700
O67         O  0.99923001  0.54355592  0.03552726    -0.84100
O68         O  0.00069564  0.49492669  0.03623110    -2.18800
O69         O  0.91395005  0.47491974  0.08768173    -0.67400
O70         O  0.93714392  0.44599730  0.06537744    -0.52000
C71         C  0.92088025  0.45205240  0.08257911     0.71300
O72         O  0.91036944  0.55980671  0.98327678    -0.60400
O73         O  0.93152383  0.58939135  0.00689315    -0.52300
C74         C  0.91531274  0.58288555  0.98971011     0.73100
O75         O  0.91250898  0.47422477  0.98467758    -0.71800
O76         O  0.93583707  0.44562242  0.00742351    -0.50400
C77         C  0.91915520  0.45149539  0.99049908     0.74500
O78         O  0.91179257  0.56113980  0.08675028    -0.67100
O79         O  0.93196286  0.59057529  0.06211287    -0.54300
C80         C  0.91660988  0.58421791  0.08009499     0.72900
Zr81       Zr  0.92331121  0.51808829  0.07273455     2.77500
O82         O  0.87754304  0.51705121  0.06614228    -0.97800
O83         O  0.91896116  0.51916267  0.11889472    -0.78700
Zr84       Zr  0.92450566  0.51739105  0.99663730     2.70100
O85         O  0.87845291  0.51552228  0.99321645    -0.79900
O86         O  0.93061792  0.51721384  0.95063979    -0.99000
Zr87       Zr  0.96039683  0.56673072  0.03494787     2.21500
Zr88       Zr  0.96290948  0.47004814  0.03572906     2.11100
O89         O  0.92402689  0.49322227  0.03502812    -2.47700
O90         O  0.92253300  0.54211187  0.03445596    -0.79700
O91         O  0.96167911  0.49443442  0.07395022    -0.71900
O92         O  0.96178777  0.54262687  0.99658987    -2.32800
O93         O  0.96067708  0.54319535  0.07369867    -2.29100
O94         O  0.96259145  0.49338546  0.99699295    -0.73600
H95         H  0.01554619  0.48435487  0.03641733     0.78300
H96         H  0.96186966  0.55338833  0.98205219     0.79400
H97         H  0.90969014  0.48188111  0.03509603     0.81700
H98         H  0.96039404  0.55423434  0.08833536     0.79300
H99         H  0.01357273  0.51068632  0.94575226     0.42300
H100        H  0.93783603  0.50035397  0.94682640     0.41300
H101        H  0.87318624  0.50301956  0.00627059     0.41000
H102        H  0.87127833  0.50376939  0.07790525     0.38900
H103        H  0.90040976  0.51967715  0.12187409     0.42000
H104        H  0.01092251  0.51680097  0.12692246     0.36800
H105        H  0.05113511  0.50976131  0.06372126     0.42900
H106        H  0.05193286  0.51740774  0.98300195     0.39300
H107        H  0.87126936  0.53308211  0.07353157     0.44300
H108        H  0.98283372  0.50730200  0.12437042     0.43000
H109        H  0.05135105  0.53058370  0.00975092     0.43100
H110        H  0.91321910  0.51661040  0.94351946     0.43500
C111        C  0.61480746  0.92650782  0.13181722     0.80100
N112        N  0.62630135  0.90578064  0.12178384    -0.78200
C113        C  0.64795006  0.89645364  0.13233032     0.82600
N114        N  0.65851558  0.90847074  0.15260813    -0.78100
C115        C  0.64706912  0.92899735  0.16302311     0.82700
N116        N  0.62516368  0.93789740  0.15259978    -0.79900
C117        C  0.61777579  0.92691072  0.94272182     0.80100
N118        N  0.62919326  0.93753496  0.92209903    -0.78200
C119        C  0.65163684  0.92846720  0.91325938     0.82600
N120        N  0.66301043  0.90898521  0.92559039    -0.78100
C121        C  0.65185105  0.89803056  0.94613186     0.82700
N122        N  0.62913935  0.90703284  0.95458564    -0.79900
C123        C  0.61600912  0.11355773  0.94449804     0.80100
N124        N  0.62828076  0.10302248  0.92433559    -0.78200
C125        C  0.65077789  0.11275242  0.91593850     0.82600
N126        N  0.66080392  0.13324226  0.92784578    -0.78100
C127        C  0.64866206  0.14413129  0.94778732     0.82700
N128        N  0.62646024  0.13400192  0.95623194    -0.79900
C129        C  0.61408944  0.11369410  0.13024147     0.80100
N130        N  0.62507296  0.13457597  0.11964562    -0.78200
C131        C  0.64629037  0.14510107  0.13016449     0.82600
N132        N  0.65643811  0.13459265  0.15149529    -0.78100
C133        C  0.64532801  0.11418662  0.16266248     0.82700
N134        N  0.62429939  0.10377664  0.15185737    -0.79900
C135        C  0.31017091  0.11165247  0.94422618     0.80100
N136        N  0.29838321  0.13138708  0.95576658    -0.78200
C137        C  0.27611247  0.14063082  0.94654325     0.82600
N138        N  0.26511416  0.12935530  0.92603764    -0.78100
C139        C  0.27672496  0.10963169  0.91423693     0.82700
N140        N  0.29928200  0.10094024  0.92337524    -0.79900
C141        C  0.31043685  0.92638040  0.94160662     0.80100
N142        N  0.29907173  0.93645262  0.92073000    -0.78200
C143        C  0.27684536  0.92682154  0.91179354     0.82600
N144        N  0.26582288  0.90692635  0.92398413    -0.78100
C145        C  0.27716558  0.89630836  0.94466233     0.82700
N146        N  0.29949156  0.90616367  0.95334245    -0.79900
C147        C  0.31458099  0.92391355  0.13254828     0.80100
N148        N  0.30293465  0.90359404  0.12180091    -0.78200
C149        C  0.28142719  0.89366563  0.13209701     0.82600
N150        N  0.27108680  0.90470332  0.15298829    -0.78100
C151        C  0.28246063  0.92503752  0.16401583     0.82700
N152        N  0.30420582  0.93456295  0.15370066    -0.79900
C153        C  0.31574989  0.11432736  0.13194134     0.80100
N154        N  0.30550659  0.10314168  0.15293697    -0.78200
C155        C  0.28349683  0.11178797  0.16323770     0.82600
N156        N  0.27144742  0.13160335  0.15206899    -0.78100
C157        C  0.28149739  0.14318577  0.13125814     0.82700
N158        N  0.30359090  0.13436878  0.12115922    -0.79900
O159        O  0.50712744  0.07135431  0.08241761    -0.75400
O160        O  0.53617372  0.04577799  0.06311011    -0.54300
C161        C  0.53006197  0.06405126  0.07808633     0.78300
O162        O  0.42066611  0.96928345  0.08709576    -0.60000
O163        O  0.39152030  0.99013992  0.06273326    -0.53000
C164        C  0.39769722  0.97413094  0.08011865     0.70300
O165        O  0.50663253  0.97082720  0.08886864    -0.74600
O166        O  0.53574123  0.99046241  0.06337636    -0.55100
C167        C  0.52962622  0.97538644  0.08168450     0.76300
O168        O  0.42118949  0.07184205  0.08268044    -0.59700
O169        O  0.39207184  0.04663219  0.06276690    -0.52800
C170        C  0.39821470  0.06459207  0.07816376     0.72900
Zr171      Zr  0.46400617  0.05822422  0.07037407     2.54700
O172        O  0.46584750  0.06108865  0.11663285    -0.80300
O173        O  0.46347949  0.10397583  0.06470270    -0.93700
Zr174      Zr  0.46368879  0.98273037  0.07513339     2.64700
O175        O  0.46131808  0.98862480  0.12108258    -0.98600
O176        O  0.46493465  0.93681007  0.07851313    -0.80700
O177        O  0.48830638  0.02045117  0.07338905    -0.84100
O178        O  0.43942767  0.02047778  0.07345665    -2.18800
O179        O  0.41998419  0.06731673  0.98361985    -0.67400
O180        O  0.39112322  0.04632095  0.00832843    -0.52000
C181        C  0.39705039  0.06259998  0.99110302     0.71300
O182        O  0.50708088  0.96563366  0.98669006    -0.60400
O183        O  0.53608688  0.99065076  0.00698101    -0.52300
C184        C  0.53008094  0.97284189  0.99138014     0.73100
O185        O  0.42031383  0.96513231  0.98701520    -0.71800
O186        O  0.39152843  0.99050194  0.00699901    -0.50400
C187        C  0.39741009  0.97250376  0.99161313     0.74500
O188        O  0.50693723  0.06641023  0.98221621    -0.67100
O189        O  0.53592295  0.04599056  0.00728135    -0.54300
C190        C  0.52984866  0.06182336  0.98968341     0.72900
Zr191      Zr  0.46358666  0.05358894  0.99444227     2.77500
O192        O  0.46323781  0.04736154  0.94847061    -0.97800
O193        O  0.46373506  0.09940700  0.98961952    -0.78700
Zr194      Zr  0.46367637  0.97820768  0.99902089     2.70100
O195        O  0.46461820  0.97731954  0.95264168    -0.79900
O196        O  0.46358056  0.93218295  0.00182878    -0.99000
Zr197      Zr  0.51214034  0.01807139  0.03500845     2.21500
Zr198      Zr  0.41543176  0.01812790  0.03504715     2.11100
O199        O  0.43910130  0.01587581  0.99631680    -2.47700
O200        O  0.48821688  0.01595210  0.99648243    -0.79700
O201        O  0.43939628  0.05627780  0.03251307    -0.71900
O202        O  0.48803130  0.97984347  0.03711433    -2.32800
O203        O  0.48823857  0.05629521  0.03240002    -2.29100
O204        O  0.43925142  0.97991824  0.03713923    -0.73600
H205        H  0.42842757  0.02120201  0.08816255     0.78300
H206        H  0.49896158  0.96525731  0.03790568     0.79400
H207        H  0.42801270  0.01521949  0.98170795     0.81700
H208        H  0.49923873  0.07084155  0.03165730     0.79300
H209        H  0.46229123  0.93079474  0.06084925     0.42300
H210        H  0.44760052  0.92787788  0.01078838     0.41300
H211        H  0.45443402  0.96227535  0.94788363     0.41000
H212        H  0.47082221  0.03043002  0.94598042     0.38900
H213        H  0.45352586  0.10561686  0.00414860     0.42000
H214        H  0.47827193  0.10773978  0.05369200     0.36800
H215        H  0.45034147  0.05231120  0.12265711     0.42900
H216        H  0.47285521  0.97571726  0.12831269     0.39300
H217        H  0.44511292  0.04509329  0.94398912     0.44300
H218        H  0.46822796  0.11083460  0.08159994     0.43000
H219        H  0.47005143  0.00494638  0.12418951     0.43100
H220        H  0.46080466  0.92641614  0.98409709     0.43500
C221        C  0.05646229  0.92466200  0.68776510     0.80100
N222        N  0.07748568  0.93572335  0.69783620    -0.78200
C223        C  0.08849808  0.92648848  0.71926219     0.82600
N224        N  0.07784764  0.90632588  0.73125461    -0.78100
C225        C  0.05702571  0.89474515  0.72135659     0.82700
N226        N  0.04625765  0.90409844  0.69966987    -0.79900
C227        C  0.87306019  0.92684673  0.68914909     0.80100
N228        N  0.88450797  0.90704939  0.70098280    -0.78200
C229        C  0.87532383  0.89772839  0.72333311     0.82600
N230        N  0.85500022  0.90902683  0.73434228    -0.78100
C231        C  0.84325772  0.92883314  0.72280193     0.82700
N232        N  0.85249642  0.93781267  0.70025205    -0.79900
C233        C  0.87236294  0.11606991  0.68612581     0.80100
N234        N  0.88315354  0.13653478  0.69740017    -0.78200
C235        C  0.87366514  0.14624233  0.71934031     0.82600
N236        N  0.85301854  0.13513363  0.73016360    -0.78100
C237        C  0.84153235  0.11494514  0.71887661     0.82700
N238        N  0.85142232  0.10539668  0.69691190    -0.79900
C239        C  0.06139830  0.11609241  0.68487558     0.80100
N240        N  0.05144204  0.13723814  0.69571112    -0.78200
C241        C  0.06166132  0.14707846  0.71739029     0.82600
N242        N  0.08164722  0.13525487  0.72855098    -0.78100
C243        C  0.09202531  0.11435710  0.71776412     0.82700
N244        N  0.08184635  0.10491947  0.69590840    -0.79900
C245        C  0.86797228  0.11510064  0.38733599     0.80100
N246        N  0.87856250  0.13587346  0.37641714    -0.78200
C247        C  0.86910436  0.14558824  0.35442788     0.82600
N248        N  0.84904901  0.13404671  0.34296786    -0.78100
C249        C  0.83799181  0.11341387  0.35382079     0.82700
N250        N  0.84768891  0.10388636  0.37588077    -0.79900
C251        C  0.86911125  0.92848779  0.38384424     0.80100
N252        N  0.84767047  0.93871138  0.37393563    -0.78200
C253        C  0.83749735  0.92977521  0.35186735     0.82600
N254        N  0.84908631  0.91028646  0.33959301    -0.78100
C255        C  0.87039474  0.89956784  0.34948820     0.82700
N256        N  0.88047798  0.90906856  0.37137358    -0.79900
C257        C  0.06024621  0.92372743  0.38623245     0.80100
N258        N  0.08106691  0.93506319  0.37602191    -0.78200
C259        C  0.09136477  0.92651983  0.35391896     0.82600
N260        N  0.08006377  0.90691086  0.34152748    -0.78100
C261        C  0.05906782  0.89546050  0.35130782     0.82700
N262        N  0.04928470  0.90403058  0.37372382    -0.79900
C263        C  0.06154601  0.11433203  0.38559331     0.80100
N264        N  0.08310972  0.10440245  0.37562995    -0.78200
C265        C  0.09344662  0.11413782  0.35396638     0.82600
N266        N  0.08165322  0.13379356  0.34202744    -0.78100
C267        C  0.06014740  0.14403551  0.35194566     0.82700
N268        N  0.05013553  0.13402028  0.37358964    -0.79900
O269        O  0.01247008  0.96756761  0.57959508    -0.75400
O270        O  0.99305568  0.99341955  0.60846034    -0.54300
C271        C  0.00789722  0.97510795  0.60252602     0.78300
O272        O  0.01709995  0.06815372  0.49146445    -0.60000
O273        O  0.99276038  0.04679270  0.46270349    -0.53000
C274        C  0.01007335  0.06293385  0.46850284     0.70300
O275        O  0.01865608  0.06823989  0.57801810    -0.74600
O276        O  0.99389350  0.04837050  0.60766901    -0.55100
C277        C  0.01186081  0.06363907  0.60118545     0.76300
O278        O  0.01280909  0.96637259  0.49283629    -0.59700
O279        O  0.99236092  0.99100698  0.46362835    -0.52800
C280        C  0.00797265  0.97331505  0.46974713     0.72900
Zr281      Zr  0.00118257  0.98041489  0.53590800     2.54700
O282        O  0.04738308  0.98007098  0.53519697    -0.80300
O283        O  0.99872487  0.93438590  0.53600430    -0.93700
Zr284      Zr  0.00517101  0.05588938  0.53499888     2.64700
O285        O  0.05129385  0.05280523  0.53431477    -0.98600
O286        O  0.00664498  0.10192521  0.53359704    -0.80700
O287        O  0.00381185  0.01839598  0.56007946    -0.84100
O288        O  0.00367447  0.01790184  0.51094864    -2.18800
O289        O  0.91253913  0.97166109  0.49258671    -0.67400
O290        O  0.93722143  0.99223458  0.46339737    -0.52000
C291        C  0.91962211  0.97649824  0.46950756     0.71300
O292        O  0.91630605  0.07202727  0.57830298    -0.60400
O293        O  0.93813844  0.04897936  0.60787159    -0.52300
C294        C  0.92174731  0.06582867  0.60142764     0.73100
O295        O  0.91713409  0.07198232  0.49223753    -0.71800
O296        O  0.93740719  0.04721568  0.46306676    -0.50400
C297        C  0.92175350  0.06481817  0.46924922     0.74500
O298        O  0.91325731  0.97125044  0.57940580    -0.67100
O299        O  0.93808774  0.99235106  0.60807626    -0.54300
C300        C  0.92076384  0.97607809  0.60233693     0.72900
Zr301      Zr  0.92545860  0.98410035  0.53597787     2.77500
O302        O  0.87931872  0.98725932  0.53578422    -0.97800
O303        O  0.92528130  0.93805560  0.53584628    -0.78700
Zr304      Zr  0.92954623  0.05955213  0.53536269     2.70100
O305        O  0.88340405  0.06145299  0.53587518    -0.79900
O306        O  0.93417988  0.10540074  0.53332542    -0.99000
Zr307      Zr  0.96549079  0.02069528  0.58409786     2.21500
Zr308      Zr  0.96516057  0.01955427  0.48720508     2.11100
O309        O  0.92689016  0.02167273  0.51122618    -2.47700
O310        O  0.92703103  0.02206424  0.56030713    -0.79700
O311        O  0.96323259  0.98151118  0.51139263    -0.71900
O312        O  0.96746866  0.05872286  0.55972895    -2.32800
O313        O  0.96340890  0.98226822  0.56036599    -2.29100
O314        O  0.96724467  0.05795448  0.51064110    -0.73600
H315        H  0.01813815  0.01714331  0.49983336     0.78300
H316        H  0.96814190  0.07338949  0.57061881     0.79400
H317        H  0.91229307  0.02224310  0.50022336     0.81700
H318        H  0.96282034  0.96772777  0.57154330     0.79300
H319        H  0.99165102  0.10741152  0.54349081     0.42300
H320        H  0.91658294  0.11181697  0.53203131     0.41300
H321        H  0.87825230  0.04792876  0.54790835     0.41000
H322        H  0.87492351  0.99421506  0.55271788     0.38900
H323        H  0.93798711  0.93341650  0.52277339     0.42000
H324        H  0.98524513  0.93027283  0.54849351     0.36800
H325        H  0.05244850  0.99381678  0.54696363     0.42900
H326        H  0.05517004  0.04227337  0.51923335     0.39300
H327        H  0.87555846  0.00119364  0.52373710     0.44300
H328        H  0.01465343  0.92881402  0.54429083     0.43000
H329        H  0.05715029  0.06999993  0.52955258     0.43100
H330        H  0.93988563  0.11047645  0.55055451     0.43500
C331        C  0.93943699  0.29155194  0.23615457    -0.11000
C332        C  0.96223221  0.30093272  0.22645035    -0.04800
C333        C  0.98572531  0.29107547  0.23367454    -0.10900
C334        C  0.98662932  0.27133523  0.25204312     0.10000
C335        C  0.96356455  0.26172345  0.26240393    -0.02700
C336        C  0.93986078  0.27177890  0.25430198     0.09800
C337        C  0.91728674  0.26177689  0.26443524    -0.12700
C338        C  0.91785462  0.24204142  0.28207732    -0.12700
C339        C  0.94102292  0.23167162  0.29024193     0.09800
C340        C  0.96414547  0.24166662  0.28050092    -0.02700
C341        C  0.00977829  0.26105814  0.26043194    -0.12900
C342        C  0.01035446  0.24150178  0.27841914    -0.12900
C343        C  0.98779365  0.23143671  0.28859195     0.10000
C344        C  0.98805380  0.21154087  0.30679077    -0.10900
C345        C  0.96504943  0.20190701  0.31593711    -0.04800
C346        C  0.94171590  0.21135299  0.30775682    -0.11000
H347        H  0.89898937  0.26921499  0.25879334     0.07300
H348        H  0.89994959  0.23494355  0.28931356     0.07300
H349        H  0.02766591  0.26819185  0.25320573     0.07400
H350        H  0.02865753  0.23428936  0.28431097     0.07400
H351        H  0.96157246  0.31544455  0.21178701     0.03900
H352        H  0.96529672  0.18624602  0.32935357     0.03900
C353        C  0.23834264  0.99505373  0.23371532    -0.11000
C354        C  0.24860602  0.01790038  0.22507878    -0.04800
C355        C  0.23982384  0.04127475  0.23370697    -0.10900
C356        C  0.22008612  0.04204613  0.25196472     0.10000
C357        C  0.20943247  0.01901129  0.26111452    -0.02700
C358        C  0.21856078  0.99539642  0.25195115     0.09800
C359        C  0.20792119  0.97288704  0.26148760    -0.12700
C360        C  0.18857775  0.97346489  0.27963113    -0.12700
C361        C  0.17893238  0.99657680  0.28861071     0.09800
C362        C  0.18946993  0.01960890  0.27930925    -0.02700
C363        C  0.21090565  0.06514262  0.26145781    -0.12900
C364        C  0.19125739  0.06572631  0.27924880    -0.12900
C365        C  0.18011726  0.04324059  0.28821327     0.10000
C366        C  0.16004526  0.04360559  0.30610952    -0.10900
C367        C  0.15011176  0.02079584  0.31514140    -0.04800
C368        C  0.15919750  0.99741742  0.30688205    -0.11000
H369        H  0.21468507  0.95461890  0.25516388     0.07300
H370        H  0.18122743  0.95560226  0.28660227     0.07300
H371        H  0.21897195  0.08299032  0.25528875     0.07400
H372        H  0.18487184  0.08397597  0.28601833     0.07400
H373        H  0.26311909  0.01748880  0.21040285     0.03900
H374        H  0.13458028  0.02125979  0.32872892     0.03900
C375        C  0.15630218  0.28826845  0.01628453    -0.11000
C376        C  0.14612124  0.29583967  0.03964051    -0.04800
C377        C  0.15416660  0.28555697  0.06276790    -0.10900
C378        C  0.17299221  0.26653937  0.06290187     0.10000
C379        C  0.18308578  0.25787879  0.03937560    -0.02700
C380        C  0.17494047  0.26891092  0.01596260     0.09800
C381        C  0.18586669  0.26047003  0.99307038    -0.12700
C382        C  0.20345680  0.24075354  0.99294782    -0.12700
C383        C  0.21101805  0.22899215  0.01573595     0.09800
C384        C  0.20125420  0.23802922  0.03926674    -0.02700
C385        C  0.18179166  0.25585297  0.08580920    -0.12900
C386        C  0.19987315  0.23658906  0.08570263    -0.12900
C387        C  0.20959805  0.22719859  0.06268014     0.10000
C388        C  0.22759161  0.20734870  0.06224926    -0.10900
C389        C  0.23628372  0.19826152  0.03893318    -0.04800
C390        C  0.22831700  0.20855990  0.01580741    -0.11000
H391        H  0.18085780  0.26900373  0.97500994     0.07300
H392        H  0.21115251  0.23475521  0.97481488     0.07300
H393        H  0.17462746  0.26227613  0.10401155     0.07400
H394        H  0.20602783  0.22890148  0.10381038     0.07400
H395        H  0.13119020  0.30996081  0.03984770     0.03900
H396        H  0.24962122  0.18262316  0.03878609     0.03900
C397        C  0.69144592  0.04543957  0.23254956    -0.11000
C398        C  0.68234558  0.02238026  0.22334293    -0.04800
C399        C  0.69006512  0.99928294  0.23360158    -0.10900
C400        C  0.70778551  0.99895890  0.25384675     0.10000
C401        C  0.71774993  0.02221849  0.26315205    -0.02700
C402        C  0.70938842  0.04560138  0.25264230     0.09800
C403        C  0.71921639  0.06834294  0.26244167    -0.12700
C404        C  0.73779262  0.06819425  0.28141866    -0.12700
C405        C  0.74688402  0.04529756  0.29152405     0.09800
C406        C  0.73646234  0.02206876  0.28266116    -0.02700
C407        C  0.71582187  0.97612997  0.26495812    -0.12900
C408        C  0.73415124  0.97599013  0.28417756    -0.12900
C409        C  0.74514268  0.99866406  0.29285178     0.10000
C410        C  0.76459045  0.99869771  0.31148652    -0.10900
C411        C  0.77460172  0.02173166  0.31983984    -0.04800
C412        C  0.76611476  0.04487251  0.31032497    -0.11000
H413        H  0.71279801  0.08644596  0.25525261     0.07300
H414        H  0.74503813  0.08618926  0.28812019     0.07300
H415        H  0.70804192  0.95817919  0.25874578     0.07400
H416        H  0.73977209  0.95793420  0.29212240     0.07400
H417        H  0.66922236  0.02238705  0.20737356     0.03900
H418        H  0.79005116  0.02162932  0.33354854     0.03900
C419        C  0.98594109  0.75482740  0.22535139    -0.11000
C420        C  0.96274308  0.74614161  0.21597239    -0.04800
C421        C  0.93957720  0.75513840  0.22501122    -0.10900
C422        C  0.93945941  0.77427905  0.24391508     0.10000
C423        C  0.96294353  0.78428943  0.25290178    -0.02700
C424        C  0.98631025  0.77434309  0.24379212     0.09800
C425        C  0.00923426  0.78388413  0.25361735    -0.12700
C426        C  0.00934411  0.80320179  0.27173829    -0.12700
C427        C  0.98653485  0.81378361  0.28056716     0.09800
C428        C  0.96305605  0.80413015  0.27118454    -0.02700
C429        C  0.91666485  0.78359337  0.25409390    -0.12900
C430        C  0.91676515  0.80318953  0.27188951    -0.12900
C431        C  0.93967390  0.81403340  0.28030731     0.10000
C432        C  0.93996080  0.83439056  0.29782654    -0.10900
C433        C  0.96322619  0.84371417  0.30658535    -0.04800
C434        C  0.98638473  0.83341961  0.29892179    -0.11000
H435        H  0.02730108  0.77637277  0.24742766     0.07300
H436        H  0.02750345  0.80978748  0.27878679     0.07300
H437        H  0.89853202  0.77595880  0.24810119     0.07400
H438        H  0.89869579  0.80992187  0.27893247     0.07400
H439        H  0.96273002  0.73175013  0.20121828     0.03900
H440        H  0.96329756  0.85919966  0.32016265     0.03900
C441        C  0.23383778  0.04150056  0.84158439    -0.11000
C442        C  0.24322783  0.01824371  0.84988931    -0.04800
C443        C  0.23373588  0.99538570  0.84062303    -0.10900
C444        C  0.21473213  0.99549803  0.82166725     0.10000
C445        C  0.20533120  0.01899524  0.81250720    -0.02700
C446        C  0.21468244  0.04212177  0.82270911     0.09800
C447        C  0.20483295  0.06511292  0.81362547    -0.12700
C448        C  0.18629119  0.06546591  0.79464135    -0.12700
C449        C  0.17674304  0.04282876  0.78430916     0.09800
C450        C  0.18627180  0.01934434  0.79340808    -0.02700
C451        C  0.20501233  0.97283862  0.81160040    -0.12900
C452        C  0.18629950  0.97317810  0.79282974    -0.12900
C453        C  0.17662079  0.99618891  0.78359417     0.10000
C454        C  0.15720797  0.99674313  0.76503039    -0.10900
C455        C  0.14852463  0.01992811  0.75586022    -0.04800
C456        C  0.15805488  0.04288590  0.76494153    -0.11000
H457        H  0.21163892  0.08304024  0.82093403     0.07300
H458        H  0.17955691  0.08366924  0.78806180     0.07300
H459        H  0.21193400  0.95466183  0.81809382     0.07400
H460        H  0.17941781  0.95524720  0.78559257     0.07400
H461        H  0.25739009  0.01789233  0.86493188     0.03900
H462        H  0.13350905  0.02012633  0.74167741     0.03900
C463        C  0.94392381  0.28504214  0.84534119    -0.11000
C464        C  0.96680677  0.29495984  0.85440445    -0.04800
C465        C  0.99023619  0.28725644  0.84479292    -0.10900
C466        C  0.99109012  0.26895635  0.82518235     0.10000
C467        C  0.96801977  0.25881019  0.81544893    -0.02700
C468        C  0.94431449  0.26684789  0.82557272     0.09800
C469        C  0.92177714  0.25687808  0.81534825    -0.12700
C470        C  0.92239531  0.23932596  0.79553046    -0.12700
C471        C  0.94558531  0.23084265  0.78542489     0.09800
C472        C  0.96866407  0.24070995  0.79545187    -0.02700
C473        C  0.01428067  0.26081660  0.81484662    -0.12900
C474        C  0.01492252  0.24281822  0.79545018    -0.12900
C475        C  0.99238735  0.23251102  0.78553118     0.10000
C476        C  0.99280741  0.21437310  0.76573926    -0.10900
C477        C  0.96993751  0.20519021  0.75592834    -0.04800
C478        C  0.94642534  0.21302176  0.76529860    -0.11000
H479        H  0.90344286  0.26281852  0.82243333     0.07300
H480        H  0.90446016  0.23261908  0.78805162     0.07300
H481        H  0.03215176  0.26839461  0.82164664     0.07400
H482        H  0.03324526  0.23719826  0.78806925     0.07400
H483        H  0.96638728  0.30877870  0.86968913     0.03900
H484        H  0.97048017  0.19081074  0.74118509     0.03900
C485        C  0.16058940  0.74651833  0.01613102    -0.11000
C486        C  0.15215821  0.73712443  0.03950446    -0.04800
C487        C  0.16033789  0.74728829  0.06259299    -0.10900
C488        C  0.17830918  0.76718450  0.06265686     0.10000
C489        C  0.18728961  0.77699634  0.03908486    -0.02700
C490        C  0.17842028  0.76665280  0.01568877     0.09800
C491        C  0.18776317  0.77654586  0.99264682    -0.12700
C492        C  0.20535336  0.79638800  0.99249005    -0.12700
C493        C  0.21392157  0.80729177  0.01536704     0.09800
C494        C  0.20483161  0.79746540  0.03892953    -0.02700
C495        C  0.18746279  0.77749346  0.08556308    -0.12900
C496        C  0.20465338  0.79758743  0.08542476    -0.12900
C497        C  0.21334288  0.80799594  0.06236769     0.10000
C498        C  0.23042945  0.82865177  0.06200950    -0.10900
C499        C  0.23894408  0.83816752  0.03874381    -0.04800
C500        C  0.23156537  0.82758502  0.01553860    -0.11000
H501        H  0.18168593  0.76881808  0.97454250     0.07300
H502        H  0.21216475  0.80315878  0.97425453     0.07300
H503        H  0.18127420  0.77010765  0.10379634     0.07400
H504        H  0.21100972  0.80502055  0.10355852     0.07400
H505        H  0.13777193  0.72236125  0.03971407     0.03900
H506        H  0.25203094  0.85408792  0.03871778     0.03900
C507        C  0.77056573  0.29081897  0.06240632    -0.11000
C508        C  0.78072242  0.29877205  0.03913904    -0.04800
C509        C  0.77215799  0.28912492  0.01592859    -0.10900
C510        C  0.75226326  0.27107051  0.01574179     0.10000
C511        C  0.74201662  0.26230301  0.03925131    -0.02700
C512        C  0.75125359  0.27212370  0.06270999     0.09800
C513        C  0.74074007  0.26323554  0.08568434    -0.12700
C514        C  0.72170422  0.24477665  0.08572756    -0.12700
C515        C  0.71241243  0.23465997  0.06279850     0.09800
C516        C  0.72251564  0.24365178  0.03928914    -0.02700
C517        C  0.74211353  0.26184857  0.99279017    -0.12900
C518        C  0.72283839  0.24369603  0.99282294    -0.12900
C519        C  0.71320373  0.23395184  0.01580169     0.10000
C520        C  0.69428785  0.21490465  0.01608846    -0.10900
C521        C  0.68458256  0.20646208  0.03929223    -0.04800
C522        C  0.69303983  0.21599544  0.06253554    -0.11000
H523        H  0.74710961  0.27058447  0.10384364     0.07300
H524        H  0.71416103  0.23859388  0.10389178     0.07300
H525        H  0.74901718  0.26866664  0.97459561     0.07400
H526        H  0.71555692  0.23723624  0.97465706     0.07400
H527        H  0.79611972  0.31247922  0.03912810     0.03900
H528        H  0.67043483  0.19146555  0.03929164     0.03900
C529        C  0.98717250  0.74873545  0.84614639    -0.11000
C530        C  0.96370704  0.73977417  0.85456700    -0.04800
C531        C  0.94079504  0.74957217  0.84554059    -0.10900
C532        C  0.94115100  0.76950235  0.82748008     0.10000
C533        C  0.96486720  0.77919493  0.81887392    -0.02700
C534        C  0.98798212  0.76875549  0.82818465     0.09800
C535        C  0.01116643  0.77852990  0.81924088    -0.12700
C536        C  0.01176397  0.79835540  0.80163196    -0.12700
C537        C  0.98919873  0.80919398  0.79247590     0.09800
C538        C  0.96547595  0.79949225  0.80107143    -0.02700
C539        C  0.91858312  0.77980161  0.81764312    -0.12900
C540        C  0.91918598  0.79963610  0.80004784    -0.12900
C541        C  0.94236954  0.80994293  0.79175649     0.10000
C542        C  0.94325931  0.83020602  0.77409698    -0.10900
C543        C  0.96672925  0.83968443  0.76627472    -0.04800
C544        C  0.98956422  0.82949520  0.77487099    -0.11000
H545        H  0.02905132  0.77080741  0.82574775     0.07300
H546        H  0.03008015  0.80525470  0.79529532     0.07300
H547        H  0.90024595  0.77248265  0.82339834     0.07400
H548        H  0.90130926  0.80686005  0.79296285     0.07400
H549        H  0.96327872  0.72523266  0.86920636     0.03900
H550        H  0.96725400  0.85539152  0.75290363     0.03900
C551        C  0.70063936  0.04563007  0.84747089    -0.11000
C552        C  0.69187255  0.02256480  0.85703452    -0.04800
C553        C  0.70147884  0.99953328  0.84867045    -0.10900
C554        C  0.72066258  0.99914459  0.82994556     0.10000
C555        C  0.73001643  0.02238729  0.81995367    -0.02700
C556        C  0.72017136  0.04580442  0.82889620     0.09800
C557        C  0.72977319  0.06850126  0.81869378    -0.12700
C558        C  0.74848310  0.06827095  0.79981433    -0.12700
C559        C  0.75833500  0.04534086  0.79056879     0.09800
C560        C  0.74908309  0.02215548  0.80084121    -0.02700
C561        C  0.73043606  0.97620600  0.82075340    -0.12900
C562        C  0.74919127  0.97598183  0.80208067    -0.12900
C563        C  0.75875501  0.99868905  0.79192189     0.10000
C564        C  0.77775926  0.99862049  0.77297069    -0.10900
C565        C  0.78623149  0.02148646  0.76271153    -0.04800
C566        C  0.77692910  0.04475748  0.77104849    -0.11000
H567        H  0.72263427  0.08662132  0.82502095     0.07300
H568        H  0.75502844  0.08623670  0.79232580     0.07300
H569        H  0.72352926  0.95821345  0.82785131     0.07400
H570        H  0.75609432  0.95783576  0.79554740     0.07400
H571        H  0.67740784  0.02252495  0.87177688     0.03900
H572        H  0.80088618  0.02116641  0.74817159     0.03900
C573        C  0.76886675  0.75001063  0.01620062    -0.11000
C574        C  0.77701254  0.73983258  0.03937952    -0.04800
C575        C  0.76802077  0.74856561  0.06275032    -0.10900
C576        C  0.75036902  0.76862382  0.06331503     0.10000
C577        C  0.74208822  0.77962356  0.04002324    -0.02700
C578        C  0.75135321  0.77034058  0.01633189     0.09800
C579        C  0.74266379  0.78145539  0.99359452    -0.12700
C580        C  0.72544892  0.80148746  0.99402924    -0.12700
C581        C  0.71622951  0.81105367  0.01721110     0.09800
C582        C  0.72458121  0.80001610  0.04045943    -0.02700
C583        C  0.74075038  0.77787153  0.08646928    -0.12900
C584        C  0.72350295  0.79783677  0.08687874    -0.12900
C585        C  0.71533317  0.80926037  0.06415361     0.10000
C586        C  0.69796865  0.82960161  0.06431911    -0.10900
C587        C  0.68995416  0.84009561  0.04134388    -0.04800
C588        C  0.69848898  0.83108357  0.01793049    -0.11000
H589        H  0.74896877  0.77461886  0.97523888     0.07300
H590        H  0.71927992  0.80934129  0.97600490     0.07300
H591        H  0.74642133  0.76961294  0.10447903     0.07400
H592        H  0.71655969  0.80427658  0.10516338     0.07400
H593        H  0.79137670  0.72513648  0.03928628     0.03900
H594        H  0.67673100  0.85582789  0.04169780     0.03900
C595        C  0.02401249  0.18134758  0.30143693    -0.26400
C596        C  0.01144097  0.19915333  0.31665060    -0.14500
C597        C  0.01755389  0.20083322  0.34276124     0.36100
C598        C  0.03470024  0.18348218  0.35351945    -0.25900
C599        C  0.04618382  0.16461412  0.33866582    -0.15100
C600        C  0.04136531  0.16419526  0.31208905     0.37200
N601        N  0.05237027  0.14554509  0.29573177    -0.89400
H602        H  0.01906628  0.17968051  0.28146035     0.18300
H603        H  0.03840688  0.18408197  0.37382656     0.18300
N604        N  0.00519449  0.21934243  0.35846264    -0.88400
H605        H  0.04773084  0.12756668  0.30269037     0.35700
H606        H  0.07208076  0.14778689  0.29601339     0.40800
H607        H  0.01073849  0.23721057  0.35189044     0.40400
H608        H  0.01148674  0.21795620  0.37731244     0.35300
C609        C  0.15128836  0.07263344  0.34204028    -0.26400
C610        C  0.14803221  0.06695594  0.31613798    -0.14500
C611        C  0.12892893  0.07960090  0.30222826     0.36100
C612        C  0.11286421  0.09666302  0.31466367    -0.25900
C613        C  0.11451440  0.10053317  0.34112055    -0.15100
C614        C  0.13461459  0.08890215  0.35474484     0.37200
N615        N  0.13836115  0.09276509  0.38149924    -0.89400
H616        H  0.16572202  0.06278984  0.35291883     0.18300
H617        H  0.09762616  0.10530616  0.30387834     0.18300
N618        N  0.12417574  0.07404239  0.27594609    -0.88400
H619        H  0.12305973  0.08500969  0.39146334     0.35700
H620        H  0.13927193  0.11221554  0.38500284     0.40800
H621        H  0.14060382  0.07804229  0.26554231     0.40400
H622        H  0.12014471  0.05473525  0.27422966     0.35300
C623        C  0.04907629  0.08161081  0.44909612    -0.26400
C624        C  0.02294436  0.07637918  0.44724210    -0.14500
C625        C  0.00961297  0.08446718  0.42521331     0.36100
C626        C  0.02257934  0.09720954  0.40579667    -0.25900
C627        C  0.04875115  0.10188228  0.40739154    -0.15100
C628        C  0.06214150  0.09419389  0.42934518     0.37200
N629        N  0.08880087  0.09956270  0.43167733    -0.89400
H630        H  0.05939116  0.07565174  0.46593024     0.18300
H631        H  0.01212957  0.10309980  0.38901198     0.18300
N632        N  0.98281134  0.08071987  0.42220666    -0.88400
H633        H  0.09579384  0.09276707  0.44902898     0.35700
H634        H  0.09097025  0.11923475  0.43207013     0.40800
H635        H  0.97348081  0.08833568  0.43800217     0.40400
H636        H  0.97898431  0.06134902  0.42107700     0.35300
C637        C  0.14752622  0.97075855  0.34409648    -0.26400
C638        C  0.14643205  0.97474447  0.31767449    -0.14500
C639        C  0.12916681  0.96060826  0.30298428     0.36100
C640        C  0.11260513  0.94347269  0.31498538    -0.25900
C641        C  0.11235289  0.94085144  0.34166337    -0.15100
C642        C  0.13056649  0.95412880  0.35621098     0.37200
N643        N  0.13152759  0.95127411  0.38334282    -0.89400
H644        H  0.16062514  0.98177752  0.35555792     0.18300
H645        H  0.09870196  0.93357673  0.30348254     0.18300
N646        N  0.12725971  0.96486615  0.27609848    -0.88400
H647        H  0.12879582  0.96907835  0.39155465     0.35700
H648        H  0.14970789  0.94507009  0.38828136     0.40800
H649        H  0.13032156  0.94762099  0.26687757     0.40400
H650        H  0.10874278  0.97070484  0.27204462     0.35300
C651        C  0.02988230  0.85846183  0.35032566    -0.26400
C652        C  0.04496085  0.87574586  0.33666171    -0.14500
C653        C  0.04360157  0.87551759  0.30957097     0.36100
C654        C  0.02586147  0.85984208  0.29727167    -0.25900
C655        C  0.00950920  0.84413238  0.31124995    -0.15100
C656        C  0.01225714  0.84282833  0.33791896     0.37200
N657        N  0.99616551  0.82647560  0.35258757    -0.89400
H658        H  0.03089526  0.85786890  0.37094741     0.18300
H659        H  0.02371906  0.86114860  0.27677093     0.18300
N660        N  0.05867756  0.89198994  0.29400230    -0.88400
H661        H  0.00772812  0.81421827  0.36305320     0.35700
H662        H  0.98600086  0.83760782  0.36547466     0.40800
H663        H  0.07783533  0.88788469  0.29705264     0.40400
H664        H  0.05500886  0.91073147  0.29912491     0.35300
C665        C  0.04267059  0.96173687  0.40719731    -0.26400
C666        C  0.04729405  0.93563429  0.40824499    -0.14500
C667        C  0.03916917  0.92183035  0.42987935     0.36100
C668        C  0.02687588  0.93442948  0.44995270    -0.25900
C669        C  0.02172847  0.96052397  0.44861457    -0.15100
C670        C  0.02986149  0.97429708  0.42694023     0.37200
N671        N  0.02536611  0.00108435  0.42513011    -0.89400
H672        H  0.04880224  0.97237957  0.39062224     0.18300
H673        H  0.02084398  0.92365130  0.46647003     0.18300
N674        N  0.04356188  0.89518650  0.43219298    -0.88400
H675        H  0.03214519  0.00826766  0.40784066     0.35700
H676        H  0.03586762  0.00990648  0.43952752     0.40800
H677        H  0.06302508  0.89189530  0.43023902     0.40400
H678        H  0.03402463  0.88593160  0.41742629     0.35300
C679        C  0.79790115  0.95477685  0.35718746    -0.26400
C680        C  0.81506562  0.94274572  0.34072934    -0.14500
C681        C  0.81184699  0.94560383  0.31416389     0.36100
C682        C  0.79305162  0.96198195  0.30474422    -0.25900
C683        C  0.77726851  0.97554298  0.32134934    -0.15100
C684        C  0.77890071  0.97083102  0.34788375     0.37200
N685        N  0.76249977  0.98304620  0.36597592    -0.89400
H686        H  0.79973940  0.95235269  0.37761445     0.18300
H687        H  0.79214383  0.96564240  0.28443537     0.18300
N688        N  0.82874006  0.93345182  0.29669504    -0.88400
H689        H  0.75291662  0.96883995  0.37602201     0.35700
H690        H  0.74841052  0.99352705  0.35681286     0.40800
H691        H  0.83781762  0.94744163  0.28589486     0.40400
H692        H  0.81786714  0.92233177  0.28433346     0.35300
C693        C  0.91379909  0.84411820  0.33548090    -0.26400
C694        C  0.91688277  0.84625207  0.30899248    -0.14500
C695        C  0.90156020  0.86368830  0.29536401     0.36100
C696        C  0.88486854  0.87948595  0.30887287    -0.25900
C697        C  0.88385583  0.87907171  0.33564508    -0.15100
C698        C  0.89765573  0.86039044  0.34896331     0.37200
N699        N  0.89584889  0.85851336  0.37623753    -0.89400
H700        H  0.92544314  0.83074809  0.34590644     0.18300
H701        H  0.87402562  0.89347647  0.29841771     0.18300
N702        N  0.90323640  0.86687149  0.26818779    -0.88400
H703        H  0.90750482  0.84405200  0.38313055     0.35700
H704        H  0.87718648  0.85335735  0.38065900     0.40800
H705        H  0.91656335  0.85476436  0.26011318     0.40400
H706        H  0.90964512  0.88528276  0.26462356     0.35300
C707        C  0.90796749  0.94304985  0.40639804    -0.26400
C708        C  0.88148097  0.93997593  0.40655274    -0.14500
C709        C  0.86763046  0.94830742  0.42810532     0.36100
C710        C  0.88045448  0.95931719  0.44877372    -0.25900
C711        C  0.90684068  0.96305350  0.44822351    -0.15100
C712        C  0.92075871  0.95469779  0.42679615     0.37200
N713        N  0.94786722  0.95800422  0.42583902    -0.89400
H714        H  0.91872944  0.93680499  0.38998829     0.18300
H715        H  0.86959662  0.96571378  0.46506257     0.18300
N716        N  0.84063013  0.94552776  0.42978783    -0.88400
H717        H  0.95520166  0.95111572  0.40869871     0.35700
H718        H  0.95578633  0.94702856  0.44039366     0.40800
H719        H  0.83595748  0.92652687  0.42675378     0.40400
H720        H  0.83218499  0.95657320  0.41562850     0.35300
C721        C  0.88891774  0.16301769  0.31528941    -0.26400
C722        C  0.88323737  0.16590852  0.34122901    -0.14500
C723        C  0.89398192  0.18627344  0.35478197     0.36100
C724        C  0.91151910  0.20230965  0.34271854    -0.25900
C725        C  0.91871060  0.19822352  0.31733323    -0.15100
C726        C  0.90685210  0.17861111  0.30324835     0.37200
N727        N  0.91337796  0.17310630  0.27723304    -0.89400
H728        H  0.88078884  0.14735558  0.30472366     0.18300
H729        H  0.92061308  0.21719715  0.35362948     0.18300
N730        N  0.88748889  0.19043624  0.38093144    -0.88400
H731        H  0.92181403  0.15522068  0.27690176     0.35700
H732        H  0.92674242  0.18581070  0.27000202     0.40800
H733        H  0.87973657  0.20856255  0.38243949     0.40400
H734        H  0.90424120  0.19013404  0.39161658     0.35300
C735        C  0.79658528  0.09091320  0.35573757    -0.26400
C736        C  0.81682364  0.10005223  0.34092982    -0.14500
C737        C  0.81777563  0.09401048  0.31467715     0.36100
C738        C  0.79919579  0.07784407  0.30424290    -0.25900
C739        C  0.77989482  0.06759916  0.31949502    -0.15100
C740        C  0.77821916  0.07473586  0.34523930     0.37200
N741        N  0.75859863  0.06441176  0.36105974    -0.89400
H742        H  0.79560971  0.09551131  0.37583342     0.18300
H743        H  0.80078192  0.07176269  0.28459614     0.18300
N744        N  0.83871777  0.10241387  0.29924670    -0.88400
H745        H  0.74836143  0.07946332  0.36881900     0.35700
H746        H  0.76719451  0.05457293  0.37604378     0.40800
H747        H  0.83676005  0.12191569  0.29661267     0.40400
H748        H  0.83775368  0.09436320  0.28108210     0.35300
C749        C  0.88323082  0.07624349  0.40916205    -0.26400
C750        C  0.88070676  0.10271323  0.40928711    -0.14500
C751        C  0.89158853  0.11661985  0.42965731     0.36100
C752        C  0.90449349  0.10389210  0.44916855    -0.25900
C753        C  0.90767596  0.07755509  0.44850844    -0.15100
C754        C  0.89686649  0.06364989  0.42833095     0.37200
N755        N  0.89930646  0.03666201  0.42748505    -0.89400
H756        H  0.87516050  0.06525933  0.39371190     0.18300
H757        H  0.91265224  0.11475720  0.46466284     0.18300
N758        N  0.88964746  0.14358661  0.43129383    -0.88400
H759        H  0.88109272  0.02874742  0.42744913     0.35700
H760        H  0.90814796  0.03184342  0.41034023     0.40800
H761        H  0.87053123  0.14865139  0.42983101     0.40400
H762        H  0.89974480  0.15159612  0.41619563     0.35300
C763        C  0.04562643  0.16712306  0.75713385    -0.26400
C764        C  0.04891635  0.16833172  0.73057715    -0.14500
C765        C  0.03784081  0.18843519  0.71683770     0.36100
C766        C  0.02162139  0.20535417  0.72949034    -0.25900
C767        C  0.01622041  0.20248930  0.75553471    -0.15100
C768        C  0.02907436  0.18380229  0.76972181     0.37200
N769        N  0.02405714  0.18083095  0.79649386    -0.89400
H770        H  0.05438780  0.15189656  0.76779811     0.18300
H771        H  0.01173245  0.21977974  0.71868243     0.18300
N772        N  0.04243736  0.19106024  0.68996790    -0.88400
H773        H  0.03513761  0.16629413  0.80414434     0.35700
H774        H  0.00513050  0.17517780  0.79854269     0.40800
H775        H  0.06180606  0.19472268  0.68756517     0.40400
H776        H  0.03279641  0.20676449  0.68269545     0.35300
C777        C  0.12980157  0.08012351  0.76884750    -0.26400
C778        C  0.14672311  0.06611511  0.75388209    -0.14500
C779        C  0.14801955  0.07086795  0.72733029     0.36100
C780        C  0.13062831  0.08752734  0.71615268    -0.25900
C781        C  0.11250470  0.10026123  0.73086923    -0.15100
C782        C  0.11282009  0.09726641  0.75761647     0.37200
N783        N  0.09475385  0.11013722  0.77329409    -0.89400
H784        H  0.12852134  0.07642905  0.78913085     0.18300
H785        H  0.13087700  0.09003248  0.69564846     0.18300
N786        N  0.16589891  0.05823655  0.71102773    -0.88400
H787        H  0.10476078  0.12080875  0.78674253     0.35700
H788        H  0.08404046  0.09655408  0.78306287     0.40800
H789        H  0.17859447  0.04725306  0.72154538     0.40400
H790        H  0.17694863  0.07219641  0.70222154     0.35300
C791        C  0.06324464  0.09108752  0.64443327    -0.26400
C792        C  0.04858996  0.10362790  0.66289133    -0.14500
C793        C  0.02180573  0.10253180  0.66106170     0.36100
C794        C  0.01042091  0.08955964  0.64059753    -0.25900
C795        C  0.02507095  0.07740325  0.62197996    -0.15100
C796        C  0.05182534  0.07807145  0.62411117     0.37200
N797        N  0.06782001  0.06480557  0.60659759    -0.89400
H798        H  0.08376804  0.09126980  0.64588891     0.18300
H799        H  0.98992358  0.08876056  0.63924331     0.18300
N800        N  0.00620722  0.11377794  0.68043544    -0.88400
H801        H  0.06515718  0.07231226  0.58837262     0.35700
H802        H  0.06238185  0.04575817  0.60644955     0.40800
H803        H  0.00948016  0.10391326  0.69740834     0.40400
H804        H  0.98696710  0.11137632  0.67616441     0.35300
C805        C  0.90142534  0.18420044  0.71714212    -0.26400
C806        C  0.88781387  0.16692430  0.73229240    -0.14500
C807        C  0.89088679  0.16770864  0.75910159     0.36100
C808        C  0.90903557  0.18421816  0.76977532    -0.25900
C809        C  0.92363003  0.20035855  0.75436591    -0.15100
C810        C  0.91917436  0.20083095  0.72790977     0.37200
N811        N  0.93348975  0.21748824  0.71179401    -0.89400
H812        H  0.89907481  0.18408087  0.69662124     0.18300
H813        H  0.91274478  0.18359811  0.79007846     0.18300
N814        N  0.87697592  0.15064240  0.77527662    -0.88400
H815        H  0.92070963  0.22897035  0.70188133     0.35700
H816        H  0.94323709  0.20648576  0.69847372     0.40800
H817        H  0.85797637  0.15628601  0.77488609     0.40400
H818        H  0.88287621  0.15244922  0.79421498     0.35300
C819        C  0.78594545  0.07091233  0.73261750    -0.26400
C820        C  0.78848874  0.06753744  0.75906362    -0.14500
C821        C  0.80635437  0.08219032  0.77243740     0.36100
C822        C  0.82209412  0.09915094  0.75915692    -0.25900
C823        C  0.82099442  0.10108381  0.73244063    -0.15100
C824        C  0.80200591  0.08753988  0.71914029     0.37200
N825        N  0.79959442  0.09014771  0.69197618    -0.89400
H826        H  0.77235244  0.05939520  0.72229309     0.18300
H827        H  0.83654451  0.10937851  0.76966380     0.18300
N828        N  0.80984694  0.07849880  0.79924632    -0.88400
H829        H  0.79432111  0.10884309  0.68820252     0.35700
H830        H  0.78492676  0.07865594  0.68510470     0.40800
H831        H  0.80712288  0.09589260  0.80828845     0.40400
H832        H  0.82863068  0.07292821  0.80233491     0.35300
C833        C  0.92317582  0.09144536  0.64089818    -0.26400
C834        C  0.90856266  0.07926591  0.62227360    -0.14500
C835        C  0.88180842  0.07940195  0.62451292     0.36100
C836        C  0.87032769  0.09145539  0.64535579    -0.25900
C837        C  0.88496597  0.10397609  0.66389203    -0.15100
C838        C  0.91171937  0.10393646  0.66144889     0.37200
N839        N  0.92747461  0.11584245  0.68021754    -0.89400
H840        H  0.94368538  0.09130787  0.63947285     0.18300
H841        H  0.84982171  0.09113315  0.64699221     0.18300
N842        N  0.86590552  0.06681254  0.60634825    -0.88400
H843        H  0.93868285  0.12945651  0.67106714     0.35700
H844        H  0.93951987  0.10213168  0.68793774     0.40800
H845        H  0.87141511  0.04784578  0.60531068     0.40400
H846        H  0.86869213  0.07520937  0.58853147     0.35300
C847        C  0.88990171  0.87678367  0.76346752    -0.26400
C848        C  0.88878117  0.87691426  0.73666577    -0.14500
C849        C  0.90201837  0.85817240  0.72293741     0.36100
C850        C  0.91779197  0.84122612  0.73608208    -0.25900
C851        C  0.92068496  0.84258233  0.76262862    -0.15100
C852        C  0.90601657  0.85998552  0.77658936     0.37200
N853        N  0.90848003  0.86136050  0.80383656    -0.89400
H854        H  0.87950090  0.89090281  0.77412864     0.18300
H855        H  0.92916236  0.82783941  0.72544158     0.18300
N856        N  0.89994159  0.85683711  0.69565174    -0.88400
H857        H  0.89625042  0.87504802  0.81124663     0.35700
H858        H  0.92694389  0.86738423  0.80798870     0.40800
H859        H  0.88109855  0.85231537  0.69129189     0.40400
H860        H  0.91109150  0.84214773  0.68847280     0.35300
C861        C  0.82639375  0.94720395  0.76285617    -0.26400
C862        C  0.82308701  0.94267604  0.73666673    -0.14500
C863        C  0.80144704  0.95269892  0.72436341     0.36100
C864        C  0.78517405  0.96878286  0.73769612    -0.25900
C865        C  0.79005971  0.97543169  0.76309044    -0.15100
C866        C  0.81034339  0.96363633  0.77620106     0.37200
N867        N  0.81633660  0.96910089  0.80236948    -0.89400
H868        H  0.84260412  0.93924751  0.77272744     0.18300
H869        H  0.76956745  0.97762957  0.72760806     0.18300
N870        N  0.79564158  0.94723906  0.69831601    -0.88400
H871        H  0.81431512  0.95226456  0.81267605     0.35700
H872        H  0.80364942  0.98194769  0.81034101     0.40800
H873        H  0.79552293  0.92760411  0.69587220     0.40400
H874        H  0.80972076  0.95521921  0.68689162     0.35300
C875        C  0.88319695  0.95475605  0.62267713    -0.26400
C876        C  0.90892952  0.96180661  0.62381553    -0.14500
C877        C  0.92321315  0.95513473  0.64566965     0.36100
C878        C  0.91096891  0.94385691  0.66666973    -0.25900
C879        C  0.88494254  0.93812497  0.66606765    -0.15100
C880        C  0.87124084  0.94272571  0.64335267     0.37200
N881        N  0.84554179  0.93441412  0.64032850    -0.89400
H882        H  0.87221286  0.95879989  0.60569410     0.18300
H883        H  0.92182289  0.93952845  0.68367005     0.18300
N884        N  0.95021253  0.95927021  0.64623352    -0.88400
H885        H  0.83433062  0.94362598  0.65374065     0.35700
H886        H  0.84480609  0.91495013  0.64390822     0.40800
H887        H  0.95824342  0.94789275  0.63209609     0.40400
H888        H  0.95790214  0.95315959  0.66354584     0.35300
C889        C  0.14669697  0.96777639  0.72962405    -0.26400
C890        C  0.14386514  0.97394634  0.75547312    -0.14500
C891        C  0.12462104  0.96188472  0.76994953     0.36100
C892        C  0.10793629  0.94512074  0.75782474    -0.25900
C893        C  0.10941298  0.94063776  0.73152349    -0.15100
C894        C  0.12958993  0.95150804  0.71745489     0.37200
N895        N  0.13309328  0.94660672  0.69084109    -0.89400
H896        H  0.16134919  0.97700325  0.71843630     0.18300
H897        H  0.09255625  0.93689526  0.76881179     0.18300
N898        N  0.12017690  0.96741885  0.79640097    -0.88400
H899        H  0.11774602  0.95396944  0.68068295     0.35700
H900        H  0.13376302  0.92702251  0.68812440     0.40800
H901        H  0.13283882  0.98084266  0.80351235     0.40400
H902        H  0.12330843  0.95076537  0.80670224     0.35300
C903        C  0.01705715  0.83721264  0.73771502    -0.26400
C904        C  0.01287810  0.84093701  0.76387847    -0.14500
C905        C  0.02633719  0.86040357  0.77663776     0.36100
C906        C  0.04230742  0.87648445  0.76255574    -0.25900
C907        C  0.04431343  0.87431407  0.73593606    -0.15100
C908        C  0.03235231  0.85388435  0.72363261     0.37200
N909        N  0.03514039  0.85039596  0.69672734    -0.89400
H910        H  0.00668606  0.82248444  0.72776144     0.18300
H911        H  0.05169973  0.89197913  0.77229366     0.18300
N912        N  0.02323029  0.86535540  0.80339447    -0.88400
H913        H  0.01708078  0.85092490  0.68846839     0.35700
H914        H  0.04269854  0.83238364  0.69365988     0.40800
H915        H  0.01104724  0.85232053  0.81200358     0.40400
H916        H  0.01475390  0.88312740  0.80522874     0.35300
C917        C  0.04657979  0.96305149  0.66208525    -0.26400
C918        C  0.04375250  0.93676018  0.66548731    -0.14500
C919        C  0.02893397  0.92297219  0.64773768     0.36100
C920        C  0.01771793  0.93574200  0.62694625    -0.25900
C921        C  0.02065797  0.96196759  0.62381788    -0.15100
C922        C  0.03501805  0.97569151  0.64168053     0.37200
N923        N  0.03822830  0.00250013  0.63891095    -0.89400
H924        H  0.05759835  0.97406444  0.67555742     0.18300
H925        H  0.00632848  0.92529066  0.61332925     0.18300
N926        N  0.02549051  0.89613916  0.65067033    -0.88400
H927        H  0.05766625  0.00635771  0.63765644     0.35700
H928        H  0.03131881  0.01121189  0.65537211     0.40800
H929        H  0.04322013  0.88761986  0.64831200     0.40400
H930        H  0.01376085  0.88900232  0.63628045     0.35300
C931        C  0.28694334  0.08564162  0.20270164    -0.26400
C932        C  0.27147598  0.09775631  0.18461389    -0.14500
C933        C  0.24489175  0.09420360  0.18585908     0.36100
C934        C  0.23454734  0.07736236  0.20379837    -0.25900
C935        C  0.25021964  0.06399760  0.22064331    -0.15100
C936        C  0.27650579  0.06893140  0.22071748     0.37200
N937        N  0.29271058  0.05618680  0.23848452    -0.89400
H938        H  0.30732538  0.08846557  0.20230599     0.18300
H939        H  0.21435057  0.07339730  0.20337524     0.18300
N940        N  0.22842453  0.10621846  0.16783226    -0.88400
H941        H  0.30229254  0.06991427  0.24915169     0.35700
H942        H  0.30619981  0.04596591  0.22817095     0.40800
H943        H  0.21511495  0.11685584  0.17794862     0.40400
H944        H  0.21867107  0.09212943  0.15781510     0.35300
C945        C  0.26435926  0.20015388  0.09063023    -0.26400
C946        C  0.23873008  0.19518419  0.08517272    -0.14500
C947        C  0.22665365  0.17441534  0.09709724     0.36100
C948        C  0.24049491  0.15886134  0.11369772    -0.25900
C949        C  0.26664158  0.16274319  0.11759514    -0.15100
C950        C  0.27846642  0.18391974  0.10636997     0.37200
N951        N  0.30495966  0.18861056  0.11034313    -0.89400
H952        H  0.27394144  0.21568933  0.08110476     0.18300
H953        H  0.23119719  0.14249825  0.12201753     0.18300
N954        N  0.20094603  0.16765932  0.09125645    -0.88400
H955        H  0.30694767  0.20667781  0.11819821     0.35700
H956        H  0.31392685  0.18861616  0.09257151     0.40800
H957        H  0.19957567  0.16421832  0.07168865     0.40400
H958        H  0.18928779  0.18299157  0.09569701     0.35300
C959        C  0.33942956  0.07584292  0.11870838    -0.26400
C960        C  0.33783904  0.10237679  0.11898006    -0.14500
C961        C  0.35656784  0.11663938  0.10599249     0.36100
C962        C  0.37633260  0.10399310  0.09301852    -0.25900
C963        C  0.37733912  0.07740021  0.09214983    -0.15100
C964        C  0.35850636  0.06330631  0.10519146     0.37200
N965        N  0.35842501  0.03617807  0.10542136    -0.89400
H966        H  0.32517941  0.06459535  0.12844591     0.18300
H967        H  0.39075895  0.11490656  0.08316847     0.18300
N968        N  0.35554586  0.14382057  0.10612871    -0.88400
H969        H  0.37603605  0.02983444  0.11199931     0.35700
H970        H  0.35559303  0.02964221  0.08685842     0.40800
H971        H  0.37060062  0.15145659  0.09563155     0.40400
H972        H  0.35802542  0.14980128  0.12495043     0.35300
C973        C  0.28466180  0.94925672  0.20464116    -0.26400
C974        C  0.26979685  0.93867361  0.18514835    -0.14500
C975        C  0.24331917  0.94321509  0.18486669     0.36100
C976        C  0.23270461  0.95976624  0.20291846    -0.25900
C977        C  0.24797033  0.97179440  0.22114349    -0.15100
C978        C  0.27391490  0.96553637  0.22282883     0.37200
N979        N  0.28941543  0.97688626  0.24227020    -0.89400
H980        H  0.30486348  0.94546355  0.20516243     0.18300
H981        H  0.21283438  0.96484721  0.20152852     0.18300
N982        N  0.22756874  0.93244462  0.16526999    -0.88400
H983        H  0.30812312  0.97047818  0.24091144     0.35700
H984        H  0.28251468  0.97064160  0.25987724     0.40800
H985        H  0.23308503  0.94047017  0.14789980     0.40400
H986        H  0.20856444  0.93739249  0.16801047     0.35300
C987        C  0.24108114  0.87430759  0.11671246    -0.26400
C988        C  0.26767949  0.87323470  0.11857657    -0.14500
C989        C  0.28085157  0.85440779  0.10504983     0.36100
C990        C  0.26753035  0.83807596  0.08885233    -0.25900
C991        C  0.24129334  0.84068484  0.08509829    -0.15100
C992        C  0.22773374  0.85867498  0.09971250     0.37200
N993        N  0.20098237  0.86301654  0.09649456    -0.89400
H994        H  0.23074551  0.88877760  0.12696382     0.18300
H995        H  0.27805364  0.82448232  0.07759929     0.18300
N996        N  0.30789144  0.85235948  0.10700258    -0.88400
H997        H  0.19210280  0.85862398  0.11376155     0.35700
H998        H  0.19307573  0.85109865  0.08279214     0.40800
H999        H  0.31557484  0.85481232  0.08879062     0.40400
H1000       H  0.31222324  0.83403576  0.11312363     0.35300
C1001       C  0.37596753  0.96058424  0.12000566    -0.26400
C1002       C  0.37683286  0.96051688  0.09326953    -0.14500
C1003       C  0.35763953  0.94758254  0.07961164     0.36100
C1004       C  0.33815461  0.93516929  0.09285276    -0.25900
C1005       C  0.33675620  0.93585930  0.11961822    -0.15100
C1006       C  0.35602451  0.94861598  0.13333428     0.37200
N1007       N  0.35538790  0.94927186  0.16070547    -0.89400
H1008       H  0.39068870  0.97043696  0.13051331     0.18300
H1009       H  0.32356000  0.92549639  0.08200379     0.18300
N1010       N  0.35764047  0.94636506  0.05232188    -0.88400
H1011       H  0.37078568  0.95959019  0.16784006     0.35700
H1012       H  0.35752335  0.93070276  0.16726048     0.40800
H1013       H  0.37502230  0.93898536  0.04629944     0.40400
H1014       H  0.35568120  0.96465220  0.04500558     0.35300
C1015       C  0.27864714  0.94849527  0.86982275    -0.26400
C1016       C  0.26398493  0.93955291  0.89029540    -0.14500
C1017       C  0.23792494  0.94557979  0.89132056     0.36100
C1018       C  0.22749048  0.96190338  0.87301231    -0.25900
C1019       C  0.24267529  0.97228091  0.85371846    -0.15100
C1020       C  0.26813479  0.96472126  0.85150342     0.37200
N1021       N  0.28360561  0.97452932  0.83132791    -0.89400
H1022       H  0.29861523  0.94374758  0.86865475     0.18300
H1023       H  0.20797976  0.96804724  0.87503834     0.18300
N1024       N  0.22245600  0.93681320  0.91196378    -0.88400
H1025       H  0.29064979  0.95920180  0.82095658     0.35700
H1026       H  0.29902152  0.98405174  0.83946755     0.40800
H1027       H  0.20710378  0.92683240  0.90426709     0.40400
H1028       H  0.21530644  0.95258394  0.92156036     0.35300
C1029       C  0.28017886  0.85864248  0.97295338    -0.26400
C1030       C  0.26483077  0.87516528  0.95879626    -0.14500
C1031       C  0.23815533  0.87222625  0.96005795     0.36100
C1032       C  0.22749491  0.85444121  0.97691307    -0.25900
C1033       C  0.24292304  0.83927222  0.99240080    -0.15100
C1034       C  0.26965762  0.84056972  0.98941200     0.37200
N1035       N  0.28671546  0.82478778  0.00376136    -0.89400
H1036       H  0.30066832  0.86018232  0.97177305     0.18300
H1037       H  0.20705787  0.85378607  0.97924076     0.18300
N1038       N  0.22170793  0.88828224  0.94558566    -0.88400
H1039       H  0.29753582  0.81451513  0.99069461     0.35700
H1040       H  0.27684688  0.81130311  0.01444765     0.40800
H1041       H  0.21002999  0.89808525  0.95827101     0.40400
H1042       H  0.21014907  0.87679148  0.93422899     0.35300
C1043       C  0.35330920  0.92312457  0.96175250    -0.26400
C1044       C  0.33343894  0.93844986  0.95275570    -0.14500
C1045       C  0.33523126  0.96499508  0.95612653     0.36100
C1046       C  0.35621314  0.97538213  0.96873796    -0.25900
C1047       C  0.37606507  0.96013782  0.97779549    -0.15100
C1048       C  0.37471555  0.93368649  0.97403606     0.37200
N1049       N  0.39466525  0.91760027  0.98327481    -0.89400
H1050       H  0.35202689  0.90279848  0.95932298     0.18300
H1051       H  0.35703612  0.99571099  0.97141920     0.18300
N1052       N  0.31565426  0.98190627  0.94786450    -0.88400
H1053       H  0.39083144  0.89868186  0.97885490     0.35700
H1054       H  0.39480073  0.91886821  0.00315327     0.40800
H1055       H  0.29842743  0.97617368  0.95593518     0.40400
H1056       H  0.31427580  0.98108357  0.92802585     0.35300
C1057       C  0.23659031  0.16075346  0.96311269    -0.26400
C1058       C  0.26309690  0.16152512  0.96006080    -0.14500
C1059       C  0.27703248  0.18105958  0.97192678     0.36100
C1060       C  0.26461864  0.19833711  0.98785432    -0.25900
C1061       C  0.23850681  0.19621593  0.99262922    -0.15100
C1062       C  0.22429298  0.17751441  0.97968395     0.37200
N1063       N  0.19775979  0.17392091  0.98451600    -0.89400
H1064       H  0.22561420  0.14585149  0.95413556     0.18300
H1065       H  0.27574113  0.21235471  0.99802673     0.18300
N1066       N  0.30393006  0.18301398  0.96840416    -0.88400
H1067       H  0.18826997  0.19067108  0.98000194     0.35700
H1068       H  0.19526552  0.17026122  0.00394100     0.40800
H1069       H  0.31260949  0.18164424  0.98627682     0.40400
H1070       H  0.30794850  0.20094088  0.96094849     0.35300
C1071       C  0.22770833  0.07529845  0.87374479    -0.26400
C1072       C  0.24331852  0.06410421  0.85533873    -0.14500
C1073       C  0.26929765  0.07034195  0.85463681     0.36100
C1074       C  0.27957450  0.08649245  0.87315567    -0.25900
C1075       C  0.26434346  0.09639668  0.89266335    -0.15100
C1076       C  0.23800602  0.09124979  0.89251116     0.37200
N1077       N  0.22199546  0.10047808  0.91247098    -0.89400
H1078       H  0.20782591  0.07005129  0.87477752     0.18300
H1079       H  0.29978055  0.09042084  0.87291411     0.18300
N1080       N  0.28550669  0.05915080  0.83589850    -0.88400
H1081       H  0.21385895  0.08490486  0.92172698     0.35700
H1082       H  0.20736065  0.11094584  0.90413728     0.40800
H1083       H  0.29965595  0.04899722  0.84540851     0.40400
H1084       H  0.29426123  0.07374989  0.82566791     0.35300
C1085       C  0.33470439  0.09801004  0.98242486    -0.26400
C1086       C  0.33333322  0.10043580  0.95581456    -0.14500
C1087       C  0.35368201  0.09151015  0.94089372     0.36100
C1088       C  0.37474989  0.08001656  0.95270417    -0.25900
C1089       C  0.37570764  0.07680694  0.97926829    -0.15100
C1090       C  0.35553758  0.08622443  0.99430050     0.37200
N1091       N  0.35630603  0.08384262  0.02160233    -0.89400
H1092       H  0.31915082  0.10484575  0.99401068     0.18300
H1093       H  0.39010431  0.07296076  0.94098700     0.18300
N1094       N  0.35319612  0.09440532  0.91376489    -0.88400
H1095       H  0.33998738  0.09154147  0.02982284     0.35700
H1096       H  0.37162100  0.09464649  0.02817281     0.40800
H1097       H  0.35475519  0.07644868  0.90558644     0.40400
H1098       H  0.36912403  0.10498697  0.90839104     0.35300
C1099       C  0.69698003  0.18624631  0.09874254    -0.26400
C1100       C  0.68195499  0.20376596  0.08554526    -0.14500
C1101       C  0.65534076  0.20379472  0.08966902     0.36100
C1102       C  0.64438778  0.18516387  0.10525661    -0.25900
C1103       C  0.65923138  0.16659829  0.11719632    -0.15100
C1104       C  0.68597417  0.16763041  0.11451680     0.37200
N1105       N  0.70171414  0.14847124  0.12582801    -0.89400
H1106       H  0.71722473  0.18582072  0.09509325     0.18300
H1107       H  0.62391951  0.18469116  0.10734957     0.18300
N1108       N  0.63873572  0.22140204  0.07705115    -0.88400
H1109       H  0.70192916  0.15163313  0.14547666     0.35700
H1110       H  0.72052060  0.15042296  0.11975282     0.40800
H1111       H  0.64900636  0.23494843  0.06682632     0.40400
H1112       H  0.62900773  0.23140222  0.09115455     0.35300
C1113       C  0.68429407  0.09707740  0.18310014    -0.26400
C1114       C  0.65797339  0.10115396  0.18418411    -0.14500
C1115       C  0.64388683  0.09020087  0.20418686     0.36100
C1116       C  0.65595463  0.07413754  0.22171271    -0.25900
C1117       C  0.68185762  0.06839368  0.21936702    -0.15100
C1118       C  0.69623109  0.08042375  0.20007739     0.37200
N1119       N  0.72246401  0.07458744  0.19604636    -0.89400
H1120       H  0.69532593  0.10526209  0.16771675     0.18300
H1121       H  0.64467927  0.06470126  0.23617783     0.18300
N1122       N  0.61720621  0.09484631  0.20638201    -0.88400
H1123       H  0.72415578  0.05513187  0.19291157     0.35700
H1124       H  0.73261730  0.07925032  0.21247905     0.40800
H1125       H  0.61382478  0.10268235  0.22434060     0.40400
H1126       H  0.60774029  0.07744908  0.20548891     0.35300
C1127       C  0.57520983  0.11513085  0.10261712    -0.26400
C1128       C  0.59232107  0.10079337  0.11729353    -0.14500
C1129       C  0.58872675  0.07422009  0.11882838     0.36100
C1130       C  0.56822642  0.06283263  0.10591793    -0.25900
C1131       C  0.55099347  0.07723892  0.09166079    -0.15100
C1132       C  0.55440743  0.10370766  0.09010755     0.37200
N1133       N  0.53727075  0.11879025  0.07516535    -0.89400
H1134       H  0.57788523  0.13541810  0.10115188     0.18300
H1135       H  0.56563068  0.04249800  0.10699117     0.18300
N1136       N  0.60618031  0.05871326  0.13295767    -0.88400
H1137       H  0.54322753  0.13767895  0.07482536     0.35700
H1138       H  0.51967410  0.11861555  0.08434431     0.40800
H1139       H  0.62372123  0.05958581  0.12367677     0.40400
H1140       H  0.60050113  0.03973755  0.13263259     0.35300
C1141       C  0.68720350  0.16519712  0.96508761    -0.26400
C1142       C  0.66075381  0.16536700  0.96162767    -0.14500
C1143       C  0.64623131  0.18474036  0.97293438     0.36100
C1144       C  0.65837553  0.20287804  0.98827147    -0.25900
C1145       C  0.68455028  0.20156379  0.99323516    -0.15100
C1146       C  0.69910666  0.18260731  0.98122572     0.37200
N1147       N  0.72553696  0.17923247  0.98671077    -0.89400
H1148       H  0.69851196  0.15026284  0.95673247     0.18300
H1149       H  0.64711022  0.21700972  0.99801225     0.18300
N1150       N  0.61915572  0.18542212  0.96953925    -0.88400
H1151       H  0.72776894  0.17672856  0.00634838     0.35700
H1152       H  0.73540938  0.19548067  0.98117555     0.40800
H1153       H  0.61558818  0.18871437  0.95022169     0.40400
H1154       H  0.61127166  0.20059301  0.97952794     0.35300
C1155       C  0.70346136  0.08270780  0.87632887    -0.26400
C1156       C  0.68909875  0.06850708  0.85901552    -0.14500
C1157       C  0.66251630  0.07171203  0.85819841     0.36100
C1158       C  0.65063780  0.08735333  0.87618055    -0.25900
C1159       C  0.66475675  0.10005840  0.89493326    -0.15100
C1160       C  0.69169383  0.09843101  0.89422579     0.37200
N1161       N  0.70761416  0.11091951  0.91244841    -0.89400
H1162       H  0.72382829  0.07999075  0.87731760     0.18300
H1163       H  0.63012032  0.08880910  0.87618527     0.18300
N1164       N  0.64759901  0.05756310  0.84019522    -0.88400
H1165       H  0.70222845  0.10527813  0.93077078     0.35700
H1166       H  0.70534038  0.13046221  0.91051014     0.40800
H1167       H  0.65271021  0.06370942  0.82195856     0.40400
H1168       H  0.62829288  0.06155693  0.84237983     0.35300
C1169       C  0.55348902  0.07729578  0.95132688    -0.26400
C1170       C  0.55092471  0.07630789  0.97792577    -0.14500
C1171       C  0.56901697  0.08873415  0.99337610     0.36100
C1172       C  0.58969579  0.10122019  0.98195126    -0.25900
C1173       C  0.59288122  0.10145239  0.95536821    -0.15100
C1174       C  0.57436428  0.08962144  0.93995621     0.37200
N1175       N  0.57643606  0.09044949  0.91276472    -0.89400
H1176       H  0.53954310  0.06800103  0.93934741     0.18300
H1177       H  0.60371920  0.11035852  0.99395459     0.18300
N1178       N  0.56624027  0.08867838  0.02064749    -0.88400
H1179       H  0.56012795  0.09913989  0.90555602     0.35700
H1180       H  0.57682662  0.07184390  0.90603281     0.40800
H1181       H  0.54958422  0.09848152  0.02498303     0.40400
H1182       H  0.58111791  0.09861798  0.02928276     0.35300
C1183       C  0.65053476  0.85961312  0.97325924    -0.26400
C1184       C  0.66518538  0.87797403  0.96068262    -0.14500
C1185       C  0.69190594  0.87819587  0.96428207     0.36100
C1186       C  0.70292194  0.86111233  0.98165821    -0.25900
C1187       C  0.68791526  0.84374027  0.99510291    -0.15100
C1188       C  0.66165685  0.84260121  0.99036772     0.37200
N1189       N  0.64605984  0.82493061  0.00398772    -0.89400
H1190       H  0.63014463  0.85904273  0.97052243     0.18300
H1191       H  0.72304893  0.86226172  0.98580966     0.18300
N1192       N  0.70755180  0.89679399  0.95180839    -0.88400
H1193       H  0.63655646  0.81366901  0.99066513     0.35700
H1194       H  0.63247218  0.83514379  0.01418537     0.40800
H1195       H  0.70830960  0.89200698  0.93250894     0.40400
H1196       H  0.72624366  0.89581664  0.95845015     0.35300
C1197       C  0.69160379  0.94620775  0.89555549    -0.26400
C1198       C  0.66533300  0.94221688  0.89293248    -0.14500
C1199       C  0.65215193  0.95399299  0.87276873     0.36100
C1200       C  0.66509620  0.97105118  0.85688468    -0.25900
C1201       C  0.69081657  0.97664228  0.86091124    -0.15100
C1202       C  0.70438771  0.96381222  0.88008403     0.37200
N1203       N  0.73061464  0.96986263  0.88475168    -0.89400
H1204       H  0.70175998  0.93719005  0.91103860     0.18300
H1205       H  0.65478083  0.98120547  0.84222401     0.18300
N1206       N  0.62552610  0.94923079  0.86906139    -0.88400
H1207       H  0.73782024  0.95870805  0.89953947     0.35700
H1208       H  0.73148978  0.98860922  0.89105462     0.40800
H1209       H  0.62347272  0.93016595  0.86415222     0.40400
H1210       H  0.61860172  0.95977036  0.85368966     0.35300
C1211       C  0.57482492  0.92334518  0.96286851    -0.26400
C1212       C  0.59472495  0.93870118  0.95389497    -0.14500
C1213       C  0.59286332  0.96524731  0.95664422     0.36100
C1214       C  0.57142266  0.97572608  0.96860982    -0.25900
C1215       C  0.55145535  0.96043322  0.97760988    -0.15100
C1216       C  0.55315695  0.93388040  0.97428411     0.37200
N1217       N  0.53363893  0.91706908  0.98301667    -0.89400
H1218       H  0.57607541  0.90297312  0.96088584     0.18300
H1219       H  0.57033020  0.99606217  0.97103737     0.18300
N1220       N  0.61303994  0.98148147  0.94790664    -0.88400
H1221       H  0.51689272  0.92114759  0.97317615     0.35700
H1222       H  0.53072653  0.92020708  0.00245939     0.40800
H1223       H  0.62913157  0.97752248  0.95886977     0.40400
H1224       H  0.60861836  0.00048779  0.95112490     0.35300
C1225       C  0.64437538  0.95290092  0.20371818    -0.26400
C1226       C  0.65941367  0.94305389  0.18405255    -0.14500
C1227       C  0.68561533  0.94876725  0.18353640     0.36100
C1228       C  0.69597580  0.96520169  0.20183363    -0.25900
C1229       C  0.68054526  0.97633551  0.22043532    -0.15100
C1230       C  0.65463459  0.96949740  0.22178069     0.37200
N1231       N  0.63816205  0.97991416  0.24074604    -0.89400
H1232       H  0.62428814  0.94845873  0.20444647     0.18300
H1233       H  0.71572804  0.97081141  0.20030198     0.18300
N1234       N  0.70135956  0.93954558  0.16335210    -0.88400
H1235       H  0.63753788  0.99954829  0.23848235     0.35700
H1236       H  0.64586388  0.97590766  0.25866377     0.40800
H1237       H  0.71638645  0.92949209  0.17149666     0.40400
H1238       H  0.70896493  0.95512547  0.15366478     0.35300
C1239       C  0.68801360  0.87780449  0.11605563    -0.26400
C1240       C  0.66168652  0.87556411  0.11969506    -0.14500
C1241       C  0.64869596  0.85483551  0.10890479     0.36100
C1242       C  0.66179475  0.83787717  0.09313628    -0.25900
C1243       C  0.68760794  0.84154361  0.08759721    -0.15100
C1244       C  0.70093709  0.86137210  0.09971586     0.37200
N1245       N  0.72710335  0.86639802  0.09421251    -0.89400
H1246       H  0.69824096  0.89365126  0.12425342     0.18300
H1247       H  0.65135042  0.82291246  0.08363234     0.18300
N1248       N  0.62209647  0.85133579  0.11337248    -0.88400
H1249       H  0.72895167  0.86987766  0.07468359     0.35700
H1250       H  0.73761338  0.85026627  0.09874870     0.40800
H1251       H  0.61949740  0.83347350  0.12158472     0.40400
H1252       H  0.61281963  0.85143873  0.09575320     0.35300
C1253       C  0.57182864  0.95428236  0.08066280    -0.26400
C1254       C  0.55075210  0.96214801  0.09498533    -0.14500
C1255       C  0.55059812  0.95776413  0.12157971     0.36100
C1256       C  0.57165617  0.94600394  0.13321443    -0.25900
C1257       C  0.59263578  0.93809331  0.11881202    -0.15100
C1258       C  0.59268678  0.94227842  0.09221868     0.37200
N1259       N  0.61418823  0.93490976  0.07710028    -0.89400
H1260       H  0.57203329  0.95754253  0.06026767     0.18300
H1261       H  0.57170799  0.94294415  0.15363694     0.18300
N1262       N  0.52935026  0.96567136  0.13675272    -0.88400
H1263       H  0.62969788  0.94585342  0.08294078     0.35700
H1264       H  0.61114308  0.93915349  0.05787289     0.40800
H1265       H  0.52856508  0.98542815  0.13599338     0.40400
H1266       H  0.53210507  0.96081155  0.15587521     0.35300
C1267       C  0.03735675  0.29836561  0.18379498    -0.26400
C1268       C  0.04057551  0.32480101  0.18361387    -0.14500
C1269       C  0.02882724  0.33928129  0.20276026     0.36100
C1270       C  0.01286049  0.32744796  0.22059944    -0.25900
C1271       C  0.00809880  0.30128240  0.21961538    -0.15100
C1272       C  0.02092564  0.28651500  0.20134703     0.37200
N1273       N  0.01559473  0.25993251  0.19926686    -0.89400
H1274       H  0.04619355  0.28709623  0.16904252     0.18300
H1275       H  0.00294602  0.33897847  0.23443857     0.18300
N1276       N  0.03279835  0.36607892  0.20395942    -0.88400
H1277       H  0.02909883  0.25117288  0.18768340     0.35700
H1278       H  0.99809536  0.25809890  0.19002197     0.40800
H1279       H  0.04034333  0.37038003  0.22187334     0.40400
H1280       H  0.01514660  0.37494833  0.20240947     0.35300
C1281       C  0.10419315  0.29549499  0.11347079    -0.19500
C1282       C  0.10727101  0.32151124  0.11795670    -0.14500
C1283       C  0.12889307  0.33398989  0.10798912     0.36100
C1284       C  0.14579740  0.32070735  0.09246209    -0.25900
C1285       C  0.14131772  0.29533682  0.08590078    -0.15100
C1286       C  0.12066224  0.28230682  0.09725644     0.37200
N1287       N  0.11464401  0.25639227  0.09141338    -0.89400
H1288       H  0.08775488  0.28569486  0.12109599     0.18300
H1289       H  0.16150822  0.33083182  0.08378197     0.18300
N1290       N  0.13398505  0.36018899  0.11288758    -0.88400
H1291       H  0.11617459  0.24601711  0.10832117     0.35700
H1292       H  0.12757716  0.24851931  0.07868909     0.40800
H1293       H  0.13392732  0.36305764  0.13259344     0.40400
H1294       H  0.11972669  0.37116340  0.10462387     0.35300
C1295       C  0.03776619  0.41193314  0.13189368    -0.26400
C1296       C  0.04548839  0.39100596  0.11736094    -0.14500
C1297       C  0.04119827  0.39134039  0.09070238     0.36100
C1298       C  0.02908890  0.41207206  0.07944300    -0.25900
C1299       C  0.02138209  0.43304226  0.09388690    -0.15100
C1300       C  0.02595827  0.43304663  0.12042893     0.37200
N1301       N  0.01800952  0.45410555  0.13574244    -0.89400
H1302       H  0.04088158  0.41174510  0.15230592     0.18300
H1303       H  0.02563506  0.41174837  0.05909088     0.18300
N1304       N  0.04793823  0.37051837  0.07462169    -0.88400
H1305       H  0.02290390  0.45121072  0.15483416     0.35700
H1306       H  0.99818733  0.45484221  0.13503424     0.40800
H1307       H  0.03947349  0.35404888  0.08175294     0.40400
H1308       H  0.06764813  0.36842742  0.07477807     0.35300
C1309       C  0.13152581  0.28588634  0.97558375    -0.26400
C1310       C  0.14531355  0.30051283  0.99309705    -0.14500
C1311       C  0.14436264  0.32716017  0.99121825     0.36100
C1312       C  0.12796455  0.33855259  0.97349427    -0.25900
C1313       C  0.11254671  0.32397523  0.95727925    -0.15100
C1314       C  0.11553195  0.29728349  0.95733403     0.37200
N1315       N  0.10120714  0.28166665  0.94010357    -0.89400
H1316       H  0.13213168  0.26544444  0.97709823     0.18300
H1317       H  0.12641862  0.35899346  0.97312835     0.18300
N1318       N  0.15897494  0.34251852  0.00846494    -0.88400
H1319       H  0.10442344  0.26249467  0.94381240     0.35700
H1320       H  0.10822924  0.28502613  0.92177278     0.40800
H1321       H  0.15584815  0.36175022  0.00498927     0.40400
H1322       H  0.17816002  0.33913739  0.00475388     0.35300
C1323       C  0.01718652  0.32474118  0.85429887    -0.26400
C1324       C  0.01305072  0.29861889  0.85684853    -0.14500
C1325       C  0.02742606  0.28479462  0.87460633     0.36100
C1326       C  0.04461267  0.29747464  0.89061680    -0.25900
C1327       C  0.04718388  0.32395892  0.88958583    -0.15100
C1328       C  0.03422575  0.33756305  0.87041263     0.37200
N1329       N  0.03784327  0.36442737  0.86791686    -0.89400
H1330       H  0.00605019  0.33532637  0.84059085     0.18300
H1331       H  0.05451528  0.28675791  0.90514677     0.18300
N1332       N  0.02335439  0.25813962  0.87754070    -0.88400
H1333       H  0.02680980  0.37158476  0.85300183     0.35700
H1334       H  0.05680167  0.36750628  0.86286939     0.40800
H1335       H  0.01770891  0.25470333  0.89632952     0.40400
H1336       H  0.04068019  0.24901181  0.87456915     0.35300
C1337       C  0.03300710  0.41422885  0.99146903    -0.26400
C1338       C  0.02017054  0.43202965  0.97635637    -0.14500
C1339       C  0.02097744  0.42929424  0.94941188     0.36100
C1340       C  0.03485371  0.40918938  0.93864366    -0.25900
C1341       C  0.04782918  0.39149926  0.95387174    -0.15100
C1342       C  0.04675411  0.39420442  0.98061131     0.37200
N1343       N  0.05889719  0.37620542  0.99698128    -0.89400
H1344       H  0.03246863  0.41593265  0.01203303     0.18300
H1345       H  0.03522103  0.40723094  0.91808998     0.18300
N1346       N  0.00753796  0.44589020  0.93236485    -0.88400
H1347       H  0.04505882  0.36812249  0.00875445     0.35700
H1348       H  0.07179574  0.38594270  0.00854524     0.40800
H1349       H  0.99660913  0.45905858  0.94219607     0.40400
H1350       H  0.99464249  0.43484610  0.92204151     0.35300
C1351       C  0.82074615  0.29506551  0.96292616    -0.26400
C1352       C  0.81959377  0.32115741  0.95788544    -0.14500
C1353       C  0.80010962  0.33557580  0.96919961     0.36100
C1354       C  0.78320578  0.32408437  0.98635304    -0.25900
C1355       C  0.78548456  0.29841057  0.99275436    -0.15100
C1356       C  0.80425491  0.28369354  0.98054410     0.37200
N1357       N  0.80816568  0.25764384  0.98699703    -0.89400
H1358       H  0.83572244  0.28377396  0.95457295     0.18300
H1359       H  0.76912876  0.33561677  0.99588215     0.18300
N1360       N  0.79776703  0.36204704  0.96379225    -0.88400
H1361       H  0.79159812  0.24754846  0.98289647     0.35700
H1362       H  0.81170707  0.25634707  0.00655762     0.40800
H1363       H  0.79932027  0.37192792  0.98097472     0.40400
H1364       H  0.77960917  0.36523671  0.95642935     0.35300
C1365       C  0.89024386  0.29255444  0.89275413    -0.26400
C1366       C  0.88648183  0.31887528  0.89144506    -0.14500
C1367       C  0.89812118  0.33275798  0.87157394     0.36100
C1368       C  0.91494290  0.32053526  0.85493900    -0.25900
C1369       C  0.92049476  0.29475114  0.85769155    -0.15100
C1370       C  0.90742817  0.28037949  0.87621591     0.37200
N1371       N  0.91260314  0.25381551  0.87896310    -0.89400
H1372       H  0.88117254  0.28178508  0.90780955     0.18300
H1373       H  0.92504895  0.33149246  0.84069114     0.18300
N1374       N  0.89345596  0.35942730  0.86887558    -0.88400
H1375       H  0.90140398  0.24597590  0.89341821     0.35700
H1376       H  0.93148480  0.25189355  0.88478238     0.40800
H1377       H  0.87423627  0.36167321  0.86446007     0.40400
H1378       H  0.90371181  0.36688597  0.85353958     0.35300
C1379       C  0.90842711  0.39313194  0.94985743    -0.26400
C1380       C  0.88193603  0.39013931  0.95135503    -0.14500
C1381       C  0.86754939  0.40845748  0.96464619     0.36100
C1382       C  0.88010593  0.42850831  0.97712236    -0.25900
C1383       C  0.90665655  0.43060167  0.97660756    -0.15100
C1384       C  0.92085059  0.41297365  0.96236350     0.37200
N1385       N  0.94786561  0.41504667  0.95985161    -0.89400
H1386       H  0.91976679  0.37949996  0.93951753     0.18300
H1387       H  0.86918286  0.44237137  0.98761224     0.18300
N1388       N  0.84032217  0.40674916  0.96534418    -0.88400
H1389       H  0.95611520  0.41341315  0.97787931     0.35700
H1390       H  0.95218058  0.43293267  0.95245238     0.40800
H1391       H  0.83370116  0.40903275  0.94669722     0.40400
H1392       H  0.83267123  0.42158431  0.97600283     0.35300
C1393       C  0.89210567  0.33661663  0.20732519    -0.26400
C1394       C  0.88413642  0.32243066  0.18616921    -0.14500
C1395       C  0.89075825  0.29665029  0.18463055     0.36100
C1396       C  0.90648595  0.28593331  0.20329089    -0.25900
C1397       C  0.91611931  0.30063655  0.22328508    -0.15100
C1398       C  0.90801023  0.32597691  0.22585433     0.37200
N1399       N  0.91646895  0.34151044  0.24654986    -0.89400
H1400       H  0.88685605  0.35637398  0.20885634     0.18300
H1401       H  0.91303750  0.26665400  0.20087915     0.18300
N1402       N  0.88339756  0.28184280  0.16303282    -0.88400
H1403       H  0.93623447  0.34301117  0.24583565     0.35700
H1404       H  0.91149410  0.33249427  0.26358710     0.40800
H1405       H  0.87343471  0.26600218  0.16963630     0.40400
H1406       H  0.89986493  0.27550790  0.15396745     0.35300
C1407       C  0.80084655  0.33861962  0.10630644    -0.26400
C1408       C  0.81902205  0.32347165  0.11853412    -0.14500
C1409       C  0.81770720  0.29686149  0.11563105     0.36100
C1410       C  0.79934617  0.28626529  0.09933472    -0.25900
C1411       C  0.78255343  0.30162430  0.08560907    -0.15100
C1412       C  0.78248384  0.32805081  0.09012929     0.37200
N1413       N  0.76487311  0.34478436  0.07770014    -0.89400
H1414       H  0.80135544  0.35898332  0.10874594     0.18300
H1415       H  0.79958503  0.26609884  0.09559242     0.18300
N1416       N  0.83619578  0.28078616  0.12754801    -0.88400
H1417       H  0.75446422  0.35389365  0.09193124     0.35700
H1418       H  0.75160432  0.33470645  0.06693009     0.40800
H1419       H  0.85370290  0.28463700  0.11897722     0.40400
H1420       H  0.83221761  0.26173499  0.12389787     0.35300
C1421       C  0.91044682  0.38977241  0.11797209    -0.26400
C1422       C  0.88412138  0.39036359  0.12219930    -0.14500
C1423       C  0.87022762  0.41166775  0.11420950     0.36100
C1424       C  0.88273823  0.43199591  0.10226052    -0.25900
C1425       C  0.90890098  0.43110438  0.09721059    -0.15100
C1426       C  0.92295902  0.40974938  0.10527140     0.37200
N1427       N  0.94981231  0.40838484  0.10049255    -0.89400
H1428       H  0.92116611  0.37333147  0.12397371     0.18300
H1429       H  0.87175109  0.44821684  0.09613441     0.18300
N1430       N  0.84338572  0.41278087  0.11830927    -0.88400
H1431       H  0.95723982  0.39135068  0.10734793     0.35700
H1432       H  0.95858326  0.42287227  0.11083920     0.40800
H1433       H  0.83457043  0.41505394  0.10059953     0.40400
H1434       H  0.83952328  0.42882188  0.12926287     0.35300
C1435       C  0.02286019  0.75733544  0.19624118    -0.26400
C1436       C  0.00885444  0.74310294  0.21390968    -0.14500
C1437       C  0.01246136  0.71653966  0.21509920     0.36100
C1438       C  0.02775080  0.70470454  0.19687893    -0.25900
C1439       C  0.04033856  0.71872041  0.17802890    -0.15100
C1440       C  0.03868481  0.74545308  0.17830023     0.37200
N1441       N  0.05173875  0.76035131  0.15943941    -0.89400
H1442       H  0.01986246  0.77759157  0.19513017     0.18300
H1443       H  0.02943816  0.68426376  0.19719136     0.18300
N1444       N  0.99987130  0.70091146  0.23370504    -0.88400
H1445       H  0.04869378  0.77965595  0.16249863     0.35700
H1446       H  0.04376158  0.75609753  0.14170249     0.40800
H1447       H  0.98991126  0.71185712  0.24685935     0.40400
H1448       H  0.01393886  0.69162607  0.24419012     0.35300
C1449       C  0.10918737  0.74026249  0.11202901    -0.26400
C1450       C  0.11087562  0.71427913  0.11743740    -0.14500
C1451       C  0.13227252  0.70056787  0.10874478     0.36100
C1452       C  0.14993194  0.71268759  0.09281447    -0.25900
C1453       C  0.14684222  0.73807635  0.08555580    -0.15100
C1454       C  0.12651733  0.75210239  0.09579131     0.37200
N1455       N  0.12162715  0.77768416  0.08815383    -0.89400
H1456       H  0.09297041  0.75100845  0.11860997     0.18300
H1457       H  0.16536803  0.70178109  0.08477352     0.18300
N1458       N  0.13639425  0.67439815  0.11506871    -0.88400
H1459       H  0.11942662  0.77821910  0.06835956     0.35700
H1460       H  0.13720092  0.78889465  0.09313432     0.40800
H1461       H  0.12325504  0.66802314  0.12849635     0.40400
H1462       H  0.15405453  0.67316779  0.12408727     0.35300
C1463       C  0.01609578  0.64911657  0.11337478    -0.26400
C1464       C  0.04277422  0.64961658  0.11496885    -0.14500
C1465       C  0.05648944  0.62870668  0.10517854     0.36100
C1466       C  0.04344383  0.60808873  0.09447054    -0.25900
C1467       C  0.01687545  0.60784947  0.09252685    -0.15100
C1468       C  0.00302808  0.62857361  0.10227279     0.37200
N1469       N  0.97573516  0.62851208  0.10125504    -0.89400
H1470       H  0.00532374  0.66494208  0.12072552     0.18300
H1471       H  0.05425527  0.59232466  0.08702880     0.18300
N1472       N  0.08361849  0.62749142  0.10625839    -0.88400
H1473       H  0.96843553  0.64515260  0.10909368     0.35700
H1474       H  0.96929386  0.61365310  0.11276246     0.40800
H1475       H  0.08938290  0.62997839  0.12515529     0.40400
H1476       H  0.09117033  0.64200383  0.09502394     0.35300
C1477       C  0.88358709  0.74125876  0.18136068    -0.26400
C1478       C  0.88329214  0.71463200  0.18233184    -0.14500
C1479       C  0.89849118  0.70230038  0.20053661     0.36100
C1480       C  0.91443970  0.71655458  0.21643878    -0.25900
C1481       C  0.91655547  0.74299711  0.21384773    -0.15100
C1482       C  0.90053209  0.75556708  0.19619314     0.37200
N1483       N  0.90178036  0.78240281  0.19160898    -0.89400
H1484       H  0.87199399  0.75107965  0.16747324     0.18300
H1485       H  0.92678991  0.70667841  0.22964101     0.18300
N1486       N  0.89832439  0.67526846  0.20254230    -0.88400
H1487       H  0.90718561  0.78510166  0.17262761     0.35700
H1488       H  0.91571098  0.79116493  0.20259819     0.40800
H1489       H  0.89330443  0.67045053  0.22120289     0.40400
H1490       H  0.91679104  0.66881486  0.19930505     0.35300
C1491       C  0.79529224  0.70004921  0.10775056    -0.26400
C1492       C  0.81532868  0.71394939  0.11855802    -0.14500
C1493       C  0.81634691  0.74040950  0.11462105     0.36100
C1494       C  0.79891702  0.75197885  0.09811685    -0.25900
C1495       C  0.78019773  0.73768908  0.08575502    -0.15100
C1496       C  0.77753987  0.71173802  0.09174672     0.37200
N1497       N  0.75720021  0.69683715  0.08149936    -0.89400
H1498       H  0.79383090  0.67987187  0.11120907     0.18300
H1499       H  0.80111609  0.77188822  0.09358392     0.18300
N1500       N  0.83604694  0.75538249  0.12593062    -0.88400
H1501       H  0.75847555  0.69677141  0.06164732     0.35700
H1502       H  0.74008221  0.70542086  0.08660472     0.40800
H1503       H  0.82749725  0.76953009  0.13684360     0.40400
H1504       H  0.84634588  0.76413411  0.11133123     0.35300
C1505       C  0.88871130  0.62553773  0.13294085    -0.26400
C1506       C  0.87889204  0.64593171  0.11884207    -0.14500
C1507       C  0.88186832  0.64595566  0.09212340     0.36100
C1508       C  0.89427340  0.62578529  0.08000781    -0.25900
C1509       C  0.90358847  0.60508432  0.09393221    -0.15100
C1510       C  0.90089753  0.60503931  0.12075559     0.37200
N1511       N  0.91103081  0.58449889  0.13555090    -0.89400
H1512       H  0.88680876  0.62558424  0.15349768     0.18300
H1513       H  0.89651239  0.62628417  0.05949367     0.18300
N1514       N  0.87297115  0.66686608  0.07722096    -0.88400
H1515       H  0.90746490  0.58728180  0.15493925     0.35700
H1516       H  0.93075856  0.58472745  0.13334419     0.40800
H1517       H  0.85989084  0.65995612  0.06394725     0.40400
H1518       H  0.88839316  0.67449698  0.06726768     0.35300
C1519       C  0.89575748  0.70218683  0.87463533    -0.26400
C1520       C  0.88360879  0.71710579  0.89304832    -0.14500
C1521       C  0.88707133  0.74365745  0.89236011     0.36100
C1522       C  0.90386425  0.75446812  0.87460256    -0.25900
C1523       C  0.91741882  0.73925224  0.85755922    -0.15100
C1524       C  0.91252016  0.71300120  0.85684864     0.37200
N1525       N  0.92589237  0.69729132  0.83903002    -0.89400
H1526       H  0.89291512  0.68186811  0.87474586     0.18300
H1527       H  0.90783562  0.77458729  0.87550501     0.18300
N1528       N  0.87515553  0.75958380  0.91082423    -0.88400
H1529       H  0.92028295  0.70273194  0.82071645     0.35700
H1530       H  0.92058969  0.67833114  0.84122678     0.40800
H1531       H  0.86440583  0.77310649  0.90108749     0.40400
H1532       H  0.88935271  0.76907086  0.92099040     0.35300
C1533       C  0.79790236  0.70242586  0.97129656    -0.26400
C1534       C  0.81608828  0.71734121  0.95870066    -0.14500
C1535       C  0.81525996  0.74392329  0.96175861     0.36100
C1536       C  0.79780646  0.75473979  0.97881486    -0.25900
C1537       C  0.78105886  0.73952251  0.99290432    -0.15100
C1538       C  0.78055349  0.71323244  0.98832462     0.37200
N1539       N  0.76336375  0.69726244  0.00214512    -0.89400
H1540       H  0.79792017  0.68205758  0.96888757     0.18300
H1541       H  0.79868060  0.77490431  0.98247489     0.18300
N1542       N  0.83324963  0.75991698  0.94911843    -0.88400
H1543       H  0.77406923  0.68407475  0.01239882     0.35700
H1544       H  0.75228014  0.68736268  0.98895432     0.40800
H1545       H  0.84363016  0.76968171  0.96297692     0.40400
H1546       H  0.82320266  0.77319666  0.93833632     0.35300
C1547       C  0.88992443  0.62930472  0.93990327    -0.26400
C1548       C  0.87762257  0.64723509  0.95538038    -0.14500
C1549       C  0.87697083  0.64308247  0.98206141     0.36100
C1550       C  0.88866258  0.62146409  0.99248247    -0.25900
C1551       C  0.90114643  0.60377395  0.97707563    -0.15100
C1552       C  0.90147026  0.60767228  0.95040210     0.37200
N1553       N  0.91420014  0.59052718  0.93363944    -0.89400
H1554       H  0.89072069  0.63218749  0.91946986     0.18300
H1555       H  0.88847057  0.61860824  0.01292881     0.18300
N1556       N  0.86532970  0.66126392  0.99868921    -0.88400
H1557       H  0.90573637  0.57270068  0.93540662     0.35700
H1558       H  0.93316740  0.58916404  0.93935008     0.40800
H1559       H  0.87610577  0.67788943  0.99773209     0.40400
H1560       H  0.86611491  0.65513450  0.01761420     0.35300
C1561       C  0.12923296  0.75139635  0.98136663    -0.26400
C1562       C  0.14755313  0.73619445  0.99323603    -0.14500
C1563       C  0.14820519  0.70997335  0.98757021     0.36100
C1564       C  0.12941483  0.69946237  0.97180854    -0.25900
C1565       C  0.11018582  0.71445020  0.96107171    -0.15100
C1566       C  0.11058340  0.74079702  0.96544377     0.37200
N1567       N  0.09101950  0.75665237  0.95535183    -0.89400
H1568       H  0.12817232  0.77133846  0.98605784     0.18300
H1569       H  0.12951323  0.67923112  0.96842863     0.18300
N1570       N  0.16689442  0.69331392  0.99841031    -0.88400
H1571       H  0.09961713  0.77082088  0.94440141     0.35700
H1572       H  0.08171420  0.76532013  0.97060277     0.40800
H1573       H  0.18035812  0.70333811  0.00898282     0.40400
H1574       H  0.17687352  0.68513430  0.98332024     0.35300
C1575       C  0.02104840  0.75248595  0.87872399    -0.26400
C1576       C  0.00985119  0.73817452  0.85926226    -0.14500
C1577       C  0.01654258  0.71240460  0.85666189     0.36100
C1578       C  0.03315814  0.70124171  0.87426136    -0.25900
C1579       C  0.04320911  0.71519798  0.89471636    -0.15100
C1580       C  0.03738730  0.74124563  0.89667518     0.37200
N1581       N  0.04653527  0.75580086  0.91789755    -0.89400
H1582       H  0.01543035  0.77205693  0.88109248     0.18300
H1583       H  0.03753310  0.68129149  0.87247034     0.18300
N1584       N  0.00622676  0.69703728  0.83667857    -0.88400
H1585       H  0.03805181  0.74850236  0.93436713     0.35700
H1586       H  0.04068261  0.77463568  0.91643464     0.40800
H1587       H  0.01042589  0.70571241  0.81925858     0.40400
H1588       H  0.98651477  0.69618339  0.83864949     0.35300
C1589       C  0.02398411  0.60580253  0.95403268    -0.26400
C1590       C  0.02158285  0.60516485  0.98065261    -0.14500
C1591       C  0.03279840  0.62460701  0.99534631     0.36100
C1592       C  0.04600913  0.64418371  0.98319619    -0.25900
C1593       C  0.04766969  0.64542464  0.95649950    -0.15100
C1594       C  0.03668232  0.62589511  0.94175074     0.37200
N1595       N  0.03852099  0.62648330  0.91443474    -0.89400
H1596       H  0.01544832  0.59084195  0.94278130     0.18300
H1597       H  0.05425549  0.65907519  0.99475017     0.18300
N1598       N  0.03134043  0.62485011  0.02262815    -0.88400
H1599       H  0.02924877  0.61086227  0.90646196     0.35700
H1600       H  0.05771476  0.62478792  0.90969593     0.40800
H1601       H  0.03836770  0.60769801  0.02960541     0.40400
H1602       H  0.01235212  0.62662412  0.02804602     0.35300
loop_ 
_geom_bond_atom_site_label_1 
_geom_bond_atom_site_label_2 
_geom_bond_distance 
_geom_bond_site_symmetry_2 
_ccdc_geom_bond_type 
C1            N2   1.359       .  A
C1            N6   1.359       .  A
C1         C1593   1.484       .  S
N2            C3   1.360       .  A
C3            N4   1.361       .  A
C3         C1565   1.487       .  S
N4            C5   1.362       .  A
C5            N6   1.361       .  A
C5         C1579   1.487       .  S
C7            N8   1.361       .  A
C7           N12   1.360       .  A
C7         C1548   1.497       .  S
N8            C9   1.364       .  A
C9           N10   1.360       .  A
C9         C1520   1.487       .  S
N10          C11   1.359       .  A
C11          N12   1.361       .  A
C11        C1534   1.488       .  S
C13          N14   1.362       .  A
C13          N18   1.362       .  A
C13        C1506   1.490       .  S
N14          C15   1.364       .  A
C15          N16   1.357       .  A
C15        C1478   1.486       .  S
N16          C17   1.356       .  A
C17          N18   1.360       .  A
C17        C1492   1.483       .  S
C19          N20   1.362       .  A
C19          N24   1.362       .  A
C19        C1464   1.496       .  S
N20          C21   1.361       .  A
C21          N22   1.355       .  A
C21        C1439   1.481       .  S
N22          C23   1.356       .  A
C23          N24   1.362       .  A
C23        C1450   1.479       .  S
C25          N26   1.359       .  A
C25          N30   1.360       .  A
C25        C1422   1.483       .  S
N26          C27   1.360       .  A
C27          N28   1.359       .  A
C27        C1394   1.478       .  S
N28          C29   1.360       .  A
C29          N30   1.362       .  A
C29        C1408   1.486       .  S
C31          N32   1.357       .  A
C31          N36   1.357       .  A
C31        C1380   1.488       .  S
N32          C33   1.360       .  A
C33          N34   1.363       .  A
C33        C1352   1.484       .  S
N34          C35   1.362       .  A
C35          N36   1.360       .  A
C35        C1366   1.487       .  S
C37          N38   1.361       .  A
C37          N42   1.359       .  A
C37        C1341   1.494       .  S
N38          C39   1.363       .  A
C39          N40   1.360       .  A
C39        C1313   1.495       .  S
N40          C41   1.360       .  A
C41          N42   1.361       .  A
C41        C1327   1.483       .  S
C43          N44   1.357       .  A
C43          N48   1.361       .  A
C43        C1296   1.487       .  S
N44          C45   1.358       .  A
C45          N46   1.359       .  A
C45        C1282   1.481       .  S
N46          C47   1.360       .  A
C47          N48   1.363       .  A
C47        C1268   1.486       .  S
O49         Zr61   2.470   1_455  S
O49          C51   1.293       .  A
O50         Zr87   2.422       .  S
O50          C51   1.286   1_655  A
C51        C1467   1.489       .  S
O52         Zr64   2.462   1_455  S
O52          C54   1.291       .  A
O53         Zr88   2.437       .  S
O53          C54   1.289   1_654  A
C54        C1338   1.491       .  S
O55         Zr64   2.447   1_455  S
O55          C57   1.289       .  A
O56         Zr87   2.418       .  S
O56          C57   1.286   1_654  A
C57        C1590   1.476       .  S
O58         Zr61   2.468   1_455  S
O58          C60   1.293       .  A
O59         Zr88   2.419       .  S
O59          C60   1.286   1_655  A
C60        C1299   1.488       .  S
Zr61         O62   2.434   1_655  S
Zr61         O63   2.435       .  S
Zr61         O67   2.377       .  S
Zr61         O68   2.382   1_655  S
Zr61         O91   2.375       .  S
Zr61         O93   2.370       .  S
O62         H105   0.990       .  S
O63         H104   0.990   1_655  S
O63         H108   0.990       .  S
Zr64         O65   2.435   1_656  S
Zr64         O66   2.436       .  S
Zr64         O68   2.370   1_656  S
Zr64         O67   2.382   1_556  S
Zr64         O92   2.380       .  S
Zr64         O94   2.369       .  S
O65         H106   0.990   1_554  S
O65         H109   0.990       .  S
O66          H99   0.990   1_655  S
O67         Zr87   2.387       .  S
O68         Zr88   2.382   1_455  S
O68          H95   0.963       .  S
O69         Zr81   2.460       .  S
O69          C71   1.292       .  A
O70         Zr88   2.422       .  S
O70          C71   1.286       .  A
C71        C1425   1.486       .  S
O72         Zr84   2.464       .  S
O72          C74   1.292       .  A
O73         Zr87   2.433       .  S
O73          C74   1.288   1_554  A
C74        C1551   1.489       .  S
O75         Zr84   2.448       .  S
O75          C77   1.288       .  A
O76         Zr88   2.429       .  S
O76          C77   1.287   1_554  A
C77        C1383   1.477       .  S
O78         Zr81   2.469       .  S
O78          C80   1.292       .  A
O79         Zr87   2.425       .  S
O79          C80   1.287       .  A
C80        C1509   1.490       .  S
Zr81         O82   2.436       .  S
Zr81         O83   2.434       .  S
Zr81         O89   2.377       .  S
Zr81         O90   2.375       .  S
Zr81         O93   2.371       .  S
Zr81         O91   2.380       .  S
O82         H102   0.990       .  S
O82         H107   0.990       .  S
O83         H103   0.990       .  S
Zr84         O85   2.434       .  S
Zr84         O86   2.436       .  S
Zr84         O90   2.380   1_556  S
Zr84         O89   2.384   1_556  S
Zr84         O94   2.377       .  S
Zr84         O92   2.371       .  S
O85         H101   0.990   1_556  S
O86         H100   0.990       .  S
O86         H110   0.990       .  S
Zr87         O90   2.378       .  S
Zr87         O92   2.385   1_554  S
Zr87         O93   2.382       .  S
Zr88         O89   2.390       .  S
Zr88         O91   2.387       .  S
Zr88         O94   2.376   1_554  S
O89          H97   0.963       .  S
O92          H96   0.951       .  S
O93          H98   0.965       .  S
C111        N112   1.360       .  A
C111        N116   1.360       .  A
C111       C1257   1.485       .  S
N112        C113   1.361       .  A
C113        N114   1.358       .  A
C113       C1240   1.480       .  S
N114        C115   1.358       .  A
C115        N116   1.361       .  A
C115       C1226   1.480       .  S
C117        N118   1.358       .  A
C117        N122   1.360       .  A
C117       C1212   1.488       .  S
N118        C119   1.359       .  A
C119        N120   1.356       .  A
C119       C1198   1.477       .  S
N120        C121   1.356       .  A
C121        N122   1.363       .  A
C121       C1184   1.484       .  S
C123        N124   1.361       .  A
C123        N128   1.359       .  A
C123       C1173   1.488       .  S
N124        C125   1.364       .  A
C125        N126   1.357       .  A
C125       C1159   1.488       .  S
N126        C127   1.357       .  A
C127        N128   1.359       .  A
C127       C1142   1.480       .  S
C129        N130   1.362       .  A
C129        N134   1.360       .  A
C129       C1128   1.496       .  S
N130        C131   1.364       .  A
C131        N132   1.359       .  A
C131       C1103   1.487       .  S
N132        C133   1.358       .  A
C133        N134   1.359       .  A
C133       C1114   1.481       .  S
C135        N136   1.359       .  A
C135        N140   1.359       .  A
C135       C1086   1.487       .  S
N136        C137   1.361       .  A
C137        N138   1.359       .  A
C137       C1058   1.483       .  S
N138        C139   1.360       .  A
C139        N140   1.362       .  A
C139       C1075   1.482       .  S
C141        N142   1.357       .  A
C141        N146   1.359       .  A
C141       C1044   1.488       .  S
N142        C143   1.359       .  A
C143        N144   1.359       .  A
C143       C1016   1.478       .  S
N144        C145   1.360       .  A
C145        N146   1.363       .  A
C145       C1030   1.488       .  S
C147        N148   1.358       .  A
C147        N152   1.361       .  A
C147       C1005   1.490       .  S
N148        C149   1.359       .  A
C149        N150   1.358       .  A
C149        C988   1.480       .  S
N150        C151   1.359       .  A
C151        N152   1.362       .  A
C151        C974   1.483       .  S
C153        N154   1.361       .  A
C153        N158   1.361       .  A
C153        C960   1.491       .  S
N154        C155   1.360       .  A
C155        N156   1.358       .  A
C155        C932   1.485       .  S
N156        C157   1.358       .  A
C157        N158   1.363       .  A
C157        C949   1.482       .  S
O159       Zr171   2.456       .  S
O159        C161   1.290       .  A
O160       Zr197   2.432       .  S
O160        C161   1.288       .  A
C161       C1131   1.485       .  S
O162       Zr174   2.455       .  S
O162        C164   1.290       .  A
O163       Zr198   2.423   1_565  S
O163        C164   1.286       .  A
C164       C1002   1.482       .  S
O165       Zr174   2.457       .  S
O165        C167   1.291       .  A
O166       Zr197   2.427   1_565  S
O166        C167   1.288       .  A
C167       C1254   1.489       .  S
O168       Zr171   2.457       .  S
O168        C170   1.290       .  A
O169       Zr198   2.433       .  S
O169        C170   1.288       .  A
C170        C963   1.488       .  S
Zr171       O172   2.434       .  S
Zr171       O173   2.436       .  S
Zr171       O177   2.379       .  S
Zr171       O178   2.380       .  S
Zr171       O201   2.374       .  S
Zr171       O203   2.370       .  S
O172        H215   0.990       .  S
O173        H214   0.990       .  S
O173        H218   0.990       .  S
Zr174       O175   2.435       .  S
Zr174       O176   2.434       .  S
Zr174       O178   2.373   1_565  S
Zr174       O177   2.376   1_565  S
Zr174       O202   2.378       .  S
Zr174       O204   2.377       .  S
O175        H216   0.990       .  S
O175        H219   0.990   1_565  S
O176        H209   0.990       .  S
O177       Zr197   2.378       .  S
O178       Zr198   2.382       .  S
O178        H205   0.966       .  S
O179       Zr191   2.476       .  S
O179        C181   1.294       .  A
O180       Zr198   2.414       .  S
O180        C181   1.285   1_554  A
C181       C1089   1.489       .  S
O182       Zr194   2.470       .  S
O182        C184   1.293       .  A
O183       Zr197   2.424   1_565  S
O183        C184   1.287   1_554  A
C184       C1215   1.492       .  S
O185       Zr194   2.466       .  S
O185        C187   1.292       .  A
O186       Zr198   2.424   1_565  S
O186        C187   1.287   1_554  A
C187       C1047   1.488       .  S
O188       Zr191   2.465       .  S
O188        C190   1.292       .  A
O189       Zr197   2.418       .  S
O189        C190   1.286   1_554  A
C190       C1170   1.481       .  S
Zr191       O192   2.436       .  S
Zr191       O193   2.434       .  S
Zr191       O199   2.373       .  S
Zr191       O200   2.380       .  S
Zr191       O203   2.382   1_556  S
Zr191       O201   2.375   1_556  S
O192        H212   0.990       .  S
O192        H217   0.990       .  S
O193        H213   0.990   1_556  S
Zr194       O195   2.435       .  S
Zr194       O196   2.436   1_556  S
Zr194       O200   2.377   1_565  S
Zr194       O199   2.381   1_565  S
Zr194       O204   2.381   1_556  S
Zr194       O202   2.376   1_556  S
O195        H211   0.990       .  S
O196        H210   0.990       .  S
O196        H220   0.990   1_554  S
Zr197       O200   2.384   1_554  S
Zr197       O202   2.385   1_545  S
Zr197       O203   2.387       .  S
Zr198       O199   2.388   1_554  S
Zr198       O201   2.379       .  S
Zr198       O204   2.383   1_545  S
O199        H207   0.964       .  S
O202        H206   0.964       .  S
O203        H208   0.962       .  S
C221        N222   1.358       .  A
C221        N226   1.362       .  A
C221        C918   1.491       .  S
N222        C223   1.356       .  A
C223        N224   1.357       .  A
C223        C893   1.477       .  S
N224        C225   1.358       .  A
C225        N226   1.364       .  A
C225        C907   1.481       .  S
C227        N228   1.358       .  A
C227        N232   1.362       .  A
C227        C879   1.487       .  S
N228        C229   1.360       .  A
C229        N230   1.357       .  A
C229        C848   1.484       .  S
N230        C231   1.359       .  A
C231        N232   1.364       .  A
C231        C862   1.483       .  S
C233        N234   1.357       .  A
C233        N238   1.361       .  A
C233        C837   1.489       .  S
N234        C235   1.357       .  A
C235        N236   1.359       .  A
C235        C806   1.486       .  S
N236        C237   1.361       .  A
C237        N238   1.363       .  A
C237        C823   1.486       .  S
C239        N240   1.361       .  A
C239        N244   1.359       .  A
C239        C792   1.490       .  S
N240        C241   1.362       .  A
C241        N242   1.358       .  A
C241        C764   1.483       .  S
N242        C243   1.358       .  A
C243        N244   1.361       .  A
C243        C781   1.481       .  S
C245        N246   1.356       .  A
C245        N250   1.360       .  A
C245        C750   1.485       .  S
N246        C247   1.357       .  A
C247        N248   1.359       .  A
C247        C722   1.477       .  S
N248        C249   1.359       .  A
C249        N250   1.361       .  A
C249        C736   1.482       .  S
C251        N252   1.356       .  A
C251        N256   1.359       .  A
C251        C708   1.487       .  S
N252        C253   1.361       .  A
C253        N254   1.362       .  A
C253        C680   1.487       .  S
N254        C255   1.361       .  A
C255        N256   1.361       .  A
C255        C697   1.487       .  S
C257        N258   1.358       .  A
C257        N262   1.359       .  A
C257        C666   1.484       .  S
N258        C259   1.359       .  A
C259        N260   1.360       .  A
C259        C641   1.485       .  S
N260        C261   1.360       .  A
C261        N262   1.363       .  A
C261        C652   1.492       .  S
C263        N264   1.358       .  A
C263        N268   1.357       .  A
C263        C627   1.480       .  S
N264        C265   1.360       .  A
C265        N266   1.363       .  A
C265        C613   1.487       .  S
N266        C267   1.361       .  A
C267        N268   1.359       .  A
C267        C599   1.487       .  S
O269       Zr281   2.463       .  S
O269        C271   1.291       .  A
O270       Zr307   2.413   1_565  S
O270        C271   1.285   1_655  A
C271        C921   1.477       .  S
O272       Zr284   2.455       .  S
O272        C274   1.290       .  A
O273       Zr308   2.413       .  S
O273        C274   1.284   1_655  A
C274        C624   1.485       .  S
O275       Zr284   2.455       .  S
O275        C277   1.290       .  A
O276       Zr307   2.429       .  S
O276        C277   1.287   1_655  A
C277        C795   1.484       .  S
O278       Zr281   2.459       .  S
O278        C280   1.291       .  A
O279       Zr308   2.425   1_565  S
O279        C280   1.287   1_655  A
C280        C669   1.489       .  S
Zr281       O282   2.434       .  S
Zr281       O283   2.435   1_455  S
Zr281       O287   2.380   1_565  S
Zr281       O288   2.376   1_565  S
Zr281       O311   2.378   1_455  S
Zr281       O313   2.371   1_455  S
O282        H325   0.990       .  S
O283        H324   0.990       .  S
O283        H328   0.990   1_655  S
Zr284       O285   2.436       .  S
Zr284       O286   2.435       .  S
Zr284       O288   2.374       .  S
Zr284       O287   2.378       .  S
Zr284       O312   2.378   1_455  S
Zr284       O314   2.374   1_455  S
O285        H326   0.990       .  S
O285        H329   0.990       .  S
O286        H319   0.990   1_455  S
O287       Zr307   2.384   1_455  S
O288       Zr308   2.382   1_455  S
O288        H315   0.961       .  S
O289       Zr301   2.466       .  S
O289        C291   1.292       .  A
O290       Zr308   2.409   1_565  S
O290        C291   1.284       .  A
C291        C711   1.485       .  S
O292       Zr304   2.451       .  S
O292        C294   1.289       .  A
O293       Zr307   2.426       .  S
O293        C294   1.287       .  A
C294        C834   1.480       .  S
O295       Zr304   2.445       .  S
O295        C297   1.289       .  A
O296       Zr308   2.425       .  S
O296        C297   1.287       .  A
C297        C753   1.479       .  S
O298       Zr301   2.462       .  S
O298        C300   1.292       .  A
O299       Zr307   2.428   1_565  S
O299        C300   1.288       .  A
C300        C876   1.491       .  S
Zr301       O302   2.437       .  S
Zr301       O303   2.433       .  S
Zr301       O309   2.372   1_565  S
Zr301       O310   2.381   1_565  S
Zr301       O313   2.375       .  S
Zr301       O311   2.377       .  S
O302        H322   0.990       .  S
O302        H327   0.990   1_565  S
O303        H323   0.990       .  S
Zr304       O305   2.433       .  S
Zr304       O306   2.436       .  S
Zr304       O310   2.376       .  S
Zr304       O309   2.374       .  S
Zr304       O314   2.374       .  S
Zr304       O312   2.372       .  S
O305        H321   0.990       .  S
O306        H320   0.990       .  S
O306        H330   0.990       .  S
Zr307       O310   2.380       .  S
Zr307       O312   2.382       .  S
Zr307       O313   2.386   1_545  S
Zr308       O309   2.381       .  S
Zr308       O311   2.378   1_545  S
Zr308       O314   2.377       .  S
O309        H317   0.962       .  S
O312        H316   0.964       .  S
O313        H318   0.966       .  S
C331       C1397   1.482       .  S
C331        C332   1.394       .  A
C331        C336   1.413       .  A
C332        C333   1.396       .  A
C332        H351   1.086       .  S
C333       C1271   1.490   1_655  S
C333        C334   1.420       .  A
C334        C335   1.423       .  A
C334        C341   1.406   1_655  A
C335        C336   1.423       .  A
C335        C340   1.422       .  A
C336        C337   1.404       .  A
C337        C338   1.394       .  A
C337        H347   1.083       .  S
C338        C339   1.406       .  A
C338        H348   1.083       .  S
C339        C340   1.421       .  A
C339        C346   1.413       .  A
C340        C343   1.424       .  A
C341        C342   1.399       .  A
C341        H349   1.082       .  S
C342        C343   1.406   1_455  A
C342        H350   1.083       .  S
C343        C344   1.419       .  A
C344        C596   1.489   1_655  S
C344        C345   1.398       .  A
C345        C346   1.395       .  A
C345        H352   1.086       .  S
C346        C725   1.482       .  S
C353        C977   1.486       .  S
C353        C354   1.396   1_565  A
C353        C358   1.415       .  A
C354        C355   1.396       .  A
C354        H373   1.086       .  S
C355        C935   1.485       .  S
C355        C356   1.415       .  A
C356        C357   1.422       .  A
C356        C363   1.406       .  A
C357        C358   1.423   1_545  A
C357        C362   1.421       .  A
C358        C359   1.405       .  A
C359        C360   1.395       .  A
C359        H369   1.083       .  S
C360        C361   1.406       .  A
C360        H370   1.082       .  S
C361        C362   1.422   1_565  A
C361        C368   1.416       .  A
C362        C365   1.423       .  A
C363        C364   1.395       .  A
C363        H371   1.082       .  S
C364        C365   1.404       .  A
C364        H372   1.083       .  S
C365        C366   1.415       .  A
C366        C610   1.486       .  S
C366        C367   1.395       .  A
C367        C368   1.396   1_545  A
C367        H374   1.086       .  S
C368        C638   1.484       .  S
C375       C1310   1.494   1_554  S
C375        C376   1.398       .  A
C375        C380   1.420       .  A
C376        C377   1.395       .  A
C376        H395   1.086       .  S
C377       C1285   1.485       .  S
C377        C378   1.414       .  A
C378        C379   1.421       .  A
C378        C385   1.406       .  A
C379        C380   1.426       .  A
C379        C384   1.422       .  A
C380        C381   1.406   1_554  A
C381        C382   1.396       .  A
C381        H391   1.082       .  S
C382        C383   1.405   1_556  A
C382        H392   1.083       .  S
C383        C384   1.422       .  A
C383        C390   1.415       .  A
C384        C387   1.424       .  A
C385        C386   1.396       .  A
C385        H393   1.083       .  S
C386        C387   1.404       .  A
C386        H394   1.083       .  S
C387        C388   1.416       .  A
C388        C946   1.484       .  S
C388        C389   1.393       .  A
C389        C390   1.394       .  A
C389        H396   1.086       .  S
C390       C1061   1.483   1_554  S
C397       C1117   1.485       .  S
C397        C398   1.395       .  A
C397        C402   1.416       .  A
C398        C399   1.395   1_545  A
C398        H417   1.086       .  S
C399       C1229   1.483       .  S
C399        C400   1.414       .  A
C400        C401   1.422   1_565  A
C400        C407   1.405       .  A
C401        C402   1.423       .  A
C401        C406   1.421       .  A
C402        C403   1.405       .  A
C403        C404   1.396       .  A
C403        H413   1.083       .  S
C404        C405   1.405       .  A
C404        H414   1.083       .  S
C405        C406   1.422       .  A
C405        C412   1.414       .  A
C406        C409   1.423   1_545  A
C407        C408   1.396       .  A
C407        H415   1.083       .  S
C408        C409   1.405       .  A
C408        H416   1.083       .  S
C409        C410   1.416       .  A
C410        C683   1.488       .  S
C410        C411   1.396   1_565  A
C411        C412   1.395       .  A
C411        H418   1.086       .  S
C412        C739   1.482       .  S
C419       C1436   1.486   1_655  S
C419        C420   1.394       .  A
C419        C424   1.415       .  A
C420        C421   1.395       .  A
C420        H439   1.086       .  S
C421       C1481   1.490       .  S
C421        C422   1.418       .  A
C422        C423   1.424       .  A
C422        C429   1.405       .  A
C423        C424   1.423       .  A
C423        C428   1.422       .  A
C424        C425   1.405   1_655  A
C425        C426   1.396       .  A
C425        H435   1.082       .  S
C426        C427   1.406   1_455  A
C426        H436   1.082       .  S
C427        C428   1.424       .  A
C427        C434   1.417       .  A
C428        C431   1.423       .  A
C429        C430   1.396       .  A
C429        H437   1.083       .  S
C430        C431   1.406       .  A
C430        H438   1.083       .  S
C431        C432   1.416       .  A
C432        C694   1.490       .  S
C432        C433   1.397       .  A
C433        C434   1.397       .  A
C433        H440   1.086       .  S
C434        C655   1.490   1_655  S
C441       C1072   1.482       .  S
C441        C442   1.395       .  A
C441        C446   1.414       .  A
C442        C443   1.394   1_545  A
C442        H461   1.086       .  S
C443       C1019   1.478       .  S
C443        C444   1.411       .  A
C444        C445   1.421   1_565  A
C444        C451   1.405       .  A
C445        C446   1.422       .  A
C445        C450   1.418       .  A
C446        C447   1.405       .  A
C447        C448   1.395       .  A
C447        H457   1.083       .  S
C448        C449   1.406       .  A
C448        H458   1.082       .  S
C449        C450   1.422       .  A
C449        C456   1.415       .  A
C450        C453   1.421   1_545  A
C451        C452   1.393       .  A
C451        H459   1.083       .  S
C452        C453   1.405       .  A
C452        H460   1.083       .  S
C453        C454   1.412       .  A
C454        C890   1.481       .  S
C454        C455   1.394   1_565  A
C455        C456   1.396       .  A
C455        H462   1.086       .  S
C456        C778   1.484       .  S
C463       C1369   1.487       .  S
C463        C464   1.397       .  A
C463        C468   1.416       .  A
C464        C465   1.396       .  A
C464        H483   1.086       .  S
C465       C1324   1.484   1_655  S
C465        C466   1.414       .  A
C466        C467   1.422       .  A
C466        C473   1.406   1_655  A
C467        C468   1.424       .  A
C467        C472   1.422       .  A
C468        C469   1.404       .  A
C469        C470   1.395       .  A
C469        H479   1.083       .  S
C470        C471   1.407       .  A
C470        H480   1.082       .  S
C471        C472   1.422       .  A
C471        C478   1.417       .  A
C472        C475   1.423       .  A
C473        C474   1.395       .  A
C473        H481   1.083       .  S
C474        C475   1.405   1_455  A
C474        H482   1.083       .  S
C475        C476   1.415       .  A
C476        C767   1.486   1_655  S
C476        C477   1.396       .  A
C477        C478   1.397       .  A
C477        H484   1.086       .  S
C478        C809   1.488       .  S
C485       C1562   1.487   1_554  S
C485        C486   1.395       .  A
C485        C490   1.417       .  A
C486        C487   1.394       .  A
C486        H505   1.086       .  S
C487       C1453   1.480       .  S
C487        C488   1.413       .  A
C488        C489   1.421       .  A
C488        C495   1.405       .  A
C489        C490   1.423       .  A
C489        C494   1.421       .  A
C490        C491   1.405   1_554  A
C491        C492   1.397       .  A
C491        H501   1.083       .  S
C492        C493   1.406   1_556  A
C492        H502   1.082       .  S
C493        C494   1.423       .  A
C493        C500   1.417       .  A
C494        C497   1.423       .  A
C495        C496   1.393       .  A
C495        H503   1.083       .  S
C496        C497   1.405       .  A
C496        H504   1.083       .  S
C497        C498   1.413       .  A
C498        C991   1.483       .  S
C498        C499   1.394       .  A
C499        C500   1.395       .  A
C499        H506   1.086       .  S
C500       C1033   1.487   1_554  S
C507       C1411   1.486       .  S
C507        C508   1.397       .  A
C507        C512   1.416       .  A
C508        C509   1.395       .  A
C508        H527   1.086       .  S
C509       C1355   1.487   1_554  S
C509        C510   1.415       .  A
C510        C511   1.423       .  A
C510        C517   1.405   1_554  A
C511        C512   1.422       .  A
C511        C516   1.421       .  A
C512        C513   1.407       .  A
C513        C514   1.397       .  A
C513        H523   1.082       .  S
C514        C515   1.405       .  A
C514        H524   1.083       .  S
C515        C516   1.424       .  A
C515        C522   1.417       .  A
C516        C519   1.422       .  A
C517        C518   1.395       .  A
C517        H525   1.083       .  S
C518        C519   1.405   1_556  A
C518        H526   1.083       .  S
C519        C520   1.414       .  A
C520       C1145   1.483   1_554  S
C520        C521   1.393       .  A
C521        C522   1.393       .  A
C521        H528   1.086       .  S
C522       C1100   1.488       .  S
C529       C1576   1.488   1_655  S
C529        C530   1.394       .  A
C529        C534   1.416       .  A
C530        C531   1.397       .  A
C530        H549   1.086       .  S
C531       C1523   1.486       .  S
C531        C532   1.416       .  A
C532        C533   1.422       .  A
C532        C539   1.406       .  A
C533        C534   1.424       .  A
C533        C538   1.422       .  A
C534        C535   1.405   1_655  A
C535        C536   1.396       .  A
C535        H545   1.083       .  S
C536        C537   1.405   1_455  A
C536        H546   1.083       .  S
C537        C538   1.423       .  A
C537        C544   1.415       .  A
C538        C541   1.424       .  A
C539        C540   1.396       .  A
C539        H547   1.082       .  S
C540        C541   1.405       .  A
C540        H548   1.083       .  S
C541        C542   1.416       .  A
C542        C851   1.485       .  S
C542        C543   1.394       .  A
C543        C544   1.394       .  A
C543        H550   1.086       .  S
C544        C904   1.484   1_655  S
C551       C1156   1.485       .  S
C551        C552   1.395       .  A
C551        C556   1.418       .  A
C552        C553   1.391   1_545  A
C552        H571   1.086       .  S
C553       C1201   1.478       .  S
C553        C554   1.410       .  A
C554        C555   1.422   1_565  A
C554        C561   1.405       .  A
C555        C556   1.423       .  A
C555        C560   1.420       .  A
C556        C557   1.406       .  A
C557        C558   1.398       .  A
C557        H567   1.082       .  S
C558        C559   1.407       .  A
C558        H568   1.082       .  S
C559        C560   1.423       .  A
C559        C566   1.418       .  A
C560        C563   1.422   1_545  A
C561        C562   1.392       .  A
C561        H569   1.083       .  S
C562        C563   1.404       .  A
C562        H570   1.083       .  S
C563        C564   1.412       .  A
C564        C865   1.482       .  S
C564        C565   1.394   1_565  A
C565        C566   1.396       .  A
C565        H572   1.086       .  S
C566        C820   1.486       .  S
C573       C1537   1.490   1_554  S
C573        C574   1.397       .  A
C573        C578   1.418       .  A
C574        C575   1.395       .  A
C574        H593   1.086       .  S
C575       C1495   1.483       .  S
C575        C576   1.412       .  A
C576        C577   1.422       .  A
C576        C583   1.406       .  A
C577        C578   1.424       .  A
C577        C582   1.421       .  A
C578        C579   1.406   1_554  A
C579        C580   1.396       .  A
C579        H589   1.082       .  S
C580        C581   1.406   1_556  A
C580        H590   1.082       .  S
C581        C582   1.422       .  A
C581        C588   1.415       .  A
C582        C585   1.423       .  A
C583        C584   1.394       .  A
C583        H591   1.083       .  S
C584        C585   1.404       .  A
C584        H592   1.083       .  S
C585        C586   1.413       .  A
C586       C1243   1.481       .  S
C586        C587   1.392       .  A
C587        C588   1.394       .  A
C587        H594   1.086       .  S
C588       C1187   1.480   1_554  S
C595        C596   1.403       .  A
C595        C600   1.404       .  A
C595        H602   1.084       .  S
C596        C597   1.410       .  A
C597        C598   1.406       .  A
C597        N604   1.437       .  S
C598        C599   1.405       .  A
C598        H603   1.084       .  S
C599        C600   1.418       .  A
C600        N601   1.432       .  S
N601        H605   1.046       .  S
N601        H606   1.045       .  S
N604        H607   1.046       .  S
N604        H608   1.046       .  S
C609        C610   1.403       .  A
C609        C614   1.401       .  A
C609        H616   1.084       .  S
C610        C611   1.412       .  A
C611        C612   1.401       .  A
C611        N618   1.432       .  S
C612        C613   1.406       .  A
C612        H617   1.084       .  S
C613        C614   1.418       .  A
C614        N615   1.433       .  S
N615        H619   1.044       .  S
N615        H620   1.045       .  S
N618        H621   1.044       .  S
N618        H622   1.045       .  S
C623        C624   1.407       .  A
C623        C628   1.409       .  A
C623        H630   1.084       .  S
C624        C625   1.418       .  A
C625        C626   1.398       .  A
C625        N632   1.434   1_455  S
C626        C627   1.402       .  A
C626        H631   1.084       .  S
C627        C628   1.410       .  A
C628        N629   1.437       .  S
N629        H633   1.046       .  S
N629        H634   1.046       .  S
N632        H635   1.046       .  S
N632        H636   1.044       .  S
C637        C638   1.403       .  A
C637        C642   1.403       .  A
C637        H644   1.084       .  S
C638        C639   1.406       .  A
C639        C640   1.404       .  A
C639        N646   1.432       .  S
C640        C641   1.407       .  A
C640        H645   1.083       .  S
C641        C642   1.412       .  A
C642        N643   1.432       .  S
N643        H647   1.046       .  S
N643        H648   1.046       .  S
N646        H649   1.045       .  S
N646        H650   1.046       .  S
C651        C652   1.405       .  A
C651        C656   1.402       .  A
C651        H658   1.084       .  S
C652        C653   1.424       .  A
C653        C654   1.404       .  A
C653        N660   1.432       .  S
C654        C655   1.401       .  A
C654        H659   1.084       .  S
C655        C656   1.409       .  A
C656        N657   1.433   1_455  S
N657        H661   1.045   1_655  S
N657        H662   1.046       .  S
N660        H663   1.045       .  S
N660        H664   1.045       .  S
C665        C666   1.402       .  A
C665        C670   1.405       .  A
C665        H672   1.084       .  S
C666        C667   1.414       .  A
C667        C668   1.406       .  A
C667        N674   1.432       .  S
C668        C669   1.408       .  A
C668        H673   1.084       .  S
C669        C670   1.415       .  A
C670        N671   1.439   1_565  S
N671        H675   1.046       .  S
N671        H676   1.046       .  S
N674        H677   1.046       .  S
N674        H678   1.045       .  S
C679        C680   1.405       .  A
C679        C684   1.401       .  A
C679        H686   1.084       .  S
C680        C681   1.412       .  A
C681        C682   1.406       .  A
C681        N688   1.432       .  S
C682        C683   1.404       .  A
C682        H687   1.084       .  S
C683        C684   1.417       .  A
C684        N685   1.439       .  S
N685        H689   1.046       .  S
N685        H690   1.044       .  S
N688        H691   1.046       .  S
N688        H692   1.045       .  S
C693        C694   1.404       .  A
C693        C698   1.404       .  A
C693        H700   1.084       .  S
C694        C695   1.419       .  A
C695        C696   1.407       .  A
C695        N702   1.439       .  S
C696        C697   1.406       .  A
C696        H701   1.084       .  S
C697        C698   1.412       .  A
C698        N699   1.438       .  S
N699        H703   1.046       .  S
N699        H704   1.045       .  S
N702        H705   1.042       .  S
N702        H706   1.045       .  S
C707        C708   1.404       .  A
C707        C712   1.406       .  A
C707        H714   1.084       .  S
C708        C709   1.418       .  A
C709        C710   1.404       .  A
C709        N716   1.432       .  S
C710        C711   1.404       .  A
C710        H715   1.084       .  S
C711        C712   1.415       .  A
C712        N713   1.439       .  S
N713        H717   1.046       .  S
N713        H718   1.046       .  S
N716        H719   1.045       .  S
N716        H720   1.044       .  S
C721        C722   1.403       .  A
C721        C726   1.402       .  A
C721        H728   1.084       .  S
C722        C723   1.408       .  A
C723        C724   1.402       .  A
C723        N730   1.432       .  S
C724        C725   1.402       .  A
C724        H729   1.084       .  S
C725        C726   1.417       .  A
C726        N727   1.438       .  S
N727        H731   1.046       .  S
N727        H732   1.043       .  S
N730        H733   1.045       .  S
N730        H734   1.045       .  S
C735        C736   1.404       .  A
C735        C740   1.402       .  A
C735        H742   1.084       .  S
C736        C737   1.416       .  A
C737        C738   1.408       .  A
C737        N744   1.438       .  S
C738        C739   1.401       .  A
C738        H743   1.084       .  S
C739        C740   1.406       .  A
C740        N741   1.432       .  S
N741        H745   1.045       .  S
N741        H746   1.046       .  S
N744        H747   1.045       .  S
N744        H748   1.046       .  S
C749        C750   1.405       .  A
C749        C754   1.404       .  A
C749        H756   1.084       .  S
C750        C751   1.418       .  A
C751        C752   1.401       .  A
C751        N758   1.432       .  S
C752        C753   1.403       .  A
C752        H757   1.084       .  S
C753        C754   1.409       .  A
C754        N755   1.433       .  S
N755        H759   1.046       .  S
N755        H760   1.046       .  S
N758        H761   1.045       .  S
N758        H762   1.043       .  S
C763        C764   1.406       .  A
C763        C768   1.407       .  A
C763        H770   1.084       .  S
C764        C765   1.410       .  A
C765        C766   1.406       .  A
C765        N772   1.437       .  S
C766        C767   1.404       .  A
C766        H771   1.084       .  S
C767        C768   1.410       .  A
C768        N769   1.438       .  S
N769        H773   1.046       .  S
N769        H774   1.046       .  S
N772        H775   1.046       .  S
N772        H776   1.046       .  S
C777        C778   1.402       .  A
C777        C782   1.404       .  A
C777        H784   1.084       .  S
C778        C779   1.417       .  A
C779        C780   1.400       .  A
C779        N786   1.439       .  S
C780        C781   1.402       .  A
C780        H785   1.084       .  S
C781        C782   1.412       .  A
C782        N783   1.432       .  S
N783        H787   1.046       .  S
N783        H788   1.046       .  S
N786        H789   1.044       .  S
N786        H790   1.046       .  S
C791        C792   1.407       .  A
C791        C796   1.404       .  A
C791        H798   1.084       .  S
C792        C793   1.415       .  A
C793        C794   1.408       .  A
C793        N800   1.438       .  S
C794        C795   1.403       .  A
C794        H799   1.083   1_455  S
C795        C796   1.414       .  A
C796        N797   1.433       .  S
N797        H801   1.044       .  S
N797        H802   1.046       .  S
N800        H803   1.046       .  S
N800        H804   1.045   1_455  S
C805        C806   1.405       .  A
C805        C810   1.401       .  A
C805        H812   1.084       .  S
C806        C807   1.417       .  A
C807        C808   1.409       .  A
C807        N814   1.437       .  S
C808        C809   1.403       .  A
C808        H813   1.084       .  S
C809        C810   1.408       .  A
C810        N811   1.433       .  S
N811        H815   1.045       .  S
N811        H816   1.046       .  S
N814        H817   1.045       .  S
N814        H818   1.046       .  S
C819        C820   1.405       .  A
C819        C824   1.408       .  A
C819        H826   1.084       .  S
C820        C821   1.405       .  A
C821        C822   1.404       .  A
C821        N828   1.432       .  S
C822        C823   1.407       .  A
C822        H827   1.083       .  S
C823        C824   1.413       .  A
C824        N825   1.438       .  S
N825        H829   1.046       .  S
N825        H830   1.046       .  S
N828        H831   1.045       .  S
N828        H832   1.046       .  S
C833        C834   1.400       .  A
C833        C838   1.403       .  A
C833        H840   1.083       .  S
C834        C835   1.414       .  A
C835        C836   1.405       .  A
C835        N842   1.432       .  S
C836        C837   1.406       .  A
C836        H841   1.084       .  S
C837        C838   1.415       .  A
C838        N839   1.433       .  S
N839        H843   1.046       .  S
N839        H844   1.045       .  S
N842        H845   1.046       .  S
N842        H846   1.045       .  S
C847        C848   1.408       .  A
C847        C852   1.409       .  A
C847        H854   1.083       .  S
C848        C849   1.412       .  A
C849        C850   1.403       .  A
C849        N856   1.438       .  S
C850        C851   1.403       .  A
C850        H855   1.084       .  S
C851        C852   1.409       .  A
C852        N853   1.438       .  S
N853        H857   1.046       .  S
N853        H858   1.045       .  S
N856        H859   1.046       .  S
N856        H860   1.046       .  S
C861        C862   1.406       .  A
C861        C866   1.402       .  A
C861        H868   1.084       .  S
C862        C863   1.414       .  A
C863        C864   1.398       .  A
C863        N870   1.430       .  S
C864        C865   1.402       .  A
C864        H869   1.084       .  S
C865        C866   1.416       .  A
C866        N867   1.439       .  S
N867        H871   1.046       .  S
N867        H872   1.042       .  S
N870        H873   1.046       .  S
N870        H874   1.042       .  S
C875        C876   1.406       .  A
C875        C880   1.405       .  A
C875        H882   1.084       .  S
C876        C877   1.416       .  A
C877        C878   1.408       .  A
C877        N884   1.439       .  S
C878        C879   1.404       .  A
C878        H883   1.084       .  S
C879        C880   1.414       .  A
C880        N881   1.431       .  S
N881        H885   1.041       .  S
N881        H886   1.046       .  S
N884        H887   1.046       .  S
N884        H888   1.046       .  S
C889        C890   1.404       .  A
C889        C894   1.398       .  A
C889        H896   1.084       .  S
C890        C891   1.417       .  A
C891        C892   1.400       .  A
C891        N898   1.439       .  S
C892        C893   1.403       .  A
C892        H897   1.084       .  S
C893        C894   1.414       .  A
C894        N895   1.433       .  S
N895        H899   1.044       .  S
N895        H900   1.046       .  S
N898        H901   1.042       .  S
N898        H902   1.045       .  S
C903        C904   1.405       .  A
C903        C908   1.402       .  A
C903        H910   1.084       .  S
C904        C905   1.417       .  A
C905        C906   1.404       .  A
C905        N912   1.438       .  S
C906        C907   1.406       .  A
C906        H911   1.084       .  S
C907        C908   1.406       .  A
C908        N909   1.432       .  S
N909        H913   1.046       .  S
N909        H914   1.045       .  S
N912        H915   1.043       .  S
N912        H916   1.046       .  S
C917        C918   1.408       .  A
C917        C922   1.401       .  A
C917        H924   1.084       .  S
C918        C919   1.416       .  A
C919        C920   1.412       .  A
C919        N926   1.437       .  S
C920        C921   1.403       .  A
C920        H925   1.084       .  S
C921        C922   1.405       .  A
C922        N923   1.433   1_565  S
N923        H927   1.046       .  S
N923        H928   1.046       .  S
N926        H929   1.045       .  S
N926        H930   1.046       .  S
C931        C932   1.405       .  A
C931        C936   1.404       .  A
C931        H938   1.084       .  S
C932        C933   1.414       .  A
C933        C934   1.404       .  A
C933        N940   1.432       .  S
C934        C935   1.401       .  A
C934        H939   1.084       .  S
C935        C936   1.408       .  A
C936        N937   1.432       .  S
N937        H941   1.046       .  S
N937        H942   1.046       .  S
N940        H943   1.045       .  S
N940        H944   1.046       .  S
C945        C946   1.404       .  A
C945        C950   1.404       .  A
C945        H952   1.084       .  S
C946        C947   1.412       .  A
C947        C948   1.402       .  A
C947        N954   1.433       .  S
C948        C949   1.407       .  A
C948        H953   1.084       .  S
C949        C950   1.408       .  A
C950        N951   1.432       .  S
N951        H955   1.045       .  S
N951        H956   1.046       .  S
N954        H957   1.046       .  S
N954        H958   1.045       .  S
C959        C960   1.405       .  A
C959        C964   1.399       .  A
C959        H966   1.084       .  S
C960        C961   1.414       .  A
C961        C962   1.414       .  A
C961        N968   1.437       .  S
C962        C963   1.407       .  A
C962        H967   1.084       .  S
C963        C964   1.415       .  A
C964        N965   1.433       .  S
N965        H969   1.046       .  S
N965        H970   1.045       .  S
N968        H971   1.046       .  S
N968        H972   1.046       .  S
C973        C974   1.404       .  A
C973        C978   1.406       .  A
C973        H980   1.084       .  S
C974        C975   1.416       .  A
C975        C976   1.408       .  A
C975        N982   1.438       .  S
C976        C977   1.401       .  A
C976        H981   1.084       .  S
C977        C978   1.410       .  A
C978        N979   1.437       .  S
N979        H983   1.045       .  S
N979        H984   1.046       .  S
N982        H985   1.046       .  S
N982        H986   1.045       .  S
C987        C988   1.406       .  A
C987        C992   1.404       .  A
C987        H994   1.084       .  S
C988        C989   1.408       .  A
C989        C990   1.399       .  A
C989        N996   1.432       .  S
C990        C991   1.403       .  A
C990        H995   1.084       .  S
C991        C992   1.417       .  A
C992        N993   1.438       .  S
N993        H997   1.045       .  S
N993        H998   1.042       .  S
N996        H999   1.046       .  S
N996       H1000   1.045       .  S
C1001      C1002   1.404       .  A
C1001      C1006   1.410       .  A
C1001      H1008   1.084       .  S
C1002      C1003   1.414       .  A
C1003      C1004   1.401       .  A
C1003      N1010   1.434       .  S
C1004      C1005   1.407       .  A
C1004      H1009   1.084       .  S
C1005      C1006   1.414       .  A
C1006      N1007   1.437       .  S
N1007      H1011   1.046       .  S
N1007      H1012   1.046       .  S
N1010      H1013   1.046       .  S
N1010      H1014   1.045       .  S
C1015      C1016   1.404       .  A
C1015      C1020   1.402       .  A
C1015      H1022   1.084       .  S
C1016      C1017   1.411       .  A
C1017      C1018   1.403       .  A
C1017      N1024   1.432       .  S
C1018      C1019   1.401       .  A
C1018      H1023   1.084       .  S
C1019      C1020   1.405       .  A
C1020      N1021   1.432       .  S
N1021      H1025   1.046       .  S
N1021      H1026   1.045       .  S
N1024      H1027   1.046       .  S
N1024      H1028   1.046       .  S
C1029      C1030   1.403       .  A
C1029      C1034   1.400       .  A
C1029      H1036   1.084       .  S
C1030      C1031   1.415       .  A
C1031      C1032   1.406       .  A
C1031      N1038   1.431       .  S
C1032      C1033   1.402       .  A
C1032      H1037   1.084       .  S
C1033      C1034   1.419       .  A
C1034      N1035   1.439   1_556  S
N1035      H1039   1.046   1_554  S
N1035      H1040   1.044       .  S
N1038      H1041   1.046       .  S
N1038      H1042   1.046       .  S
C1043      C1044   1.406       .  A
C1043      C1048   1.413       .  A
C1043      H1050   1.084       .  S
C1044      C1045   1.417       .  A
C1045      C1046   1.399       .  A
C1045      N1052   1.433       .  S
C1046      C1047   1.404       .  A
C1046      H1051   1.084       .  S
C1047      C1048   1.413       .  A
C1048      N1049   1.437       .  S
N1049      H1053   1.046       .  S
N1049      H1054   1.046   1_556  S
N1052      H1055   1.045       .  S
N1052      H1056   1.045       .  S
C1057      C1058   1.406       .  A
C1057      C1062   1.402       .  A
C1057      H1064   1.084       .  S
C1058      C1059   1.410       .  A
C1059      C1060   1.402       .  A
C1059      N1066   1.432       .  S
C1060      C1061   1.402       .  A
C1060      H1065   1.084       .  S
C1061      C1062   1.413       .  A
C1062      N1063   1.433       .  S
N1063      H1067   1.045       .  S
N1063      H1068   1.046   1_556  S
N1066      H1069   1.046       .  S
N1066      H1070   1.045       .  S
C1071      C1072   1.402       .  A
C1071      C1076   1.405       .  A
C1071      H1078   1.084       .  S
C1072      C1073   1.407       .  A
C1073      C1074   1.402       .  A
C1073      N1080   1.432       .  S
C1074      C1075   1.404       .  A
C1074      H1079   1.084       .  S
C1075      C1076   1.413       .  A
C1076      N1077   1.432       .  S
N1077      H1081   1.046       .  S
N1077      H1082   1.045       .  S
N1080      H1083   1.046       .  S
N1080      H1084   1.045       .  S
C1085      C1086   1.404       .  A
C1085      C1090   1.408       .  A
C1085      H1092   1.084       .  S
C1086      C1087   1.411       .  A
C1087      C1088   1.409       .  A
C1087      N1094   1.432       .  S
C1088      C1089   1.405       .  A
C1088      H1093   1.084       .  S
C1089      C1090   1.416       .  A
C1090      N1091   1.439   1_556  S
N1091      H1095   1.046       .  S
N1091      H1096   1.046       .  S
N1094      H1097   1.045       .  S
N1094      H1098   1.046       .  S
C1099      C1100   1.402       .  A
C1099      C1104   1.408       .  A
C1099      H1106   1.084       .  S
C1100      C1101   1.419       .  A
C1101      C1102   1.402       .  A
C1101      N1108   1.439       .  S
C1102      C1103   1.403       .  A
C1102      H1107   1.084       .  S
C1103      C1104   1.417       .  A
C1104      N1105   1.438       .  S
N1105      H1109   1.045       .  S
N1105      H1110   1.046       .  S
N1108      H1111   1.044       .  S
N1108      H1112   1.045       .  S
C1113      C1114   1.405       .  A
C1113      C1118   1.401       .  A
C1113      H1120   1.084       .  S
C1114      C1115   1.409       .  A
C1115      C1116   1.404       .  A
C1115      N1122   1.432       .  S
C1116      C1117   1.404       .  A
C1116      H1121   1.084       .  S
C1117      C1118   1.414       .  A
C1118      N1119   1.433       .  S
N1119      H1123   1.045       .  S
N1119      H1124   1.044       .  S
N1122      H1125   1.046       .  S
N1122      H1126   1.046       .  S
C1127      C1128   1.407       .  A
C1127      C1132   1.412       .  A
C1127      H1134   1.083       .  S
C1128      C1129   1.418       .  A
C1129      C1130   1.409       .  A
C1129      N1136   1.438       .  S
C1130      C1131   1.402       .  A
C1130      H1135   1.084       .  S
C1131      C1132   1.412       .  A
C1132      N1133   1.437       .  S
N1133      H1137   1.045       .  S
N1133      H1138   1.045       .  S
N1136      H1139   1.046       .  S
N1136      H1140   1.046       .  S
C1141      C1142   1.405       .  A
C1141      C1146   1.398       .  A
C1141      H1148   1.084       .  S
C1142      C1143   1.411       .  A
C1143      C1144   1.405       .  A
C1143      N1150   1.438       .  S
C1144      C1145   1.405       .  A
C1144      H1149   1.084       .  S
C1145      C1146   1.413       .  A
C1146      N1147   1.433       .  S
N1147      H1151   1.045   1_556  S
N1147      H1152   1.043       .  S
N1150      H1153   1.045       .  S
N1150      H1154   1.046       .  S
C1155      C1156   1.400       .  A
C1155      C1160   1.401       .  A
C1155      H1162   1.084       .  S
C1156      C1157   1.412       .  A
C1157      C1158   1.404       .  A
C1157      N1164   1.438       .  S
C1158      C1159   1.404       .  A
C1158      H1163   1.084       .  S
C1159      C1160   1.422       .  A
C1160      N1161   1.432       .  S
N1161      H1165   1.045       .  S
N1161      H1166   1.045       .  S
N1164      H1167   1.045       .  S
N1164      H1168   1.046       .  S
C1169      C1170   1.403       .  A
C1169      C1174   1.409       .  A
C1169      H1176   1.084       .  S
C1170      C1171   1.412       .  A
C1171      C1172   1.406       .  A
C1171      N1178   1.439   1_556  S
C1172      C1173   1.405       .  A
C1172      H1177   1.084       .  S
C1173      C1174   1.412       .  A
C1174      N1175   1.432       .  S
N1175      H1179   1.046       .  S
N1175      H1180   1.045       .  S
N1178      H1181   1.046       .  S
N1178      H1182   1.046       .  S
C1183      C1184   1.402       .  A
C1183      C1188   1.399       .  A
C1183      H1190   1.084       .  S
C1184      C1185   1.420       .  A
C1185      C1186   1.408       .  A
C1185      N1192   1.438       .  S
C1186      C1187   1.400       .  A
C1186      H1191   1.084       .  S
C1187      C1188   1.406       .  A
C1188      N1189   1.432   1_556  S
N1189      H1193   1.045   1_554  S
N1189      H1194   1.046       .  S
N1192      H1195   1.045       .  S
N1192      H1196   1.046       .  S
C1197      C1198   1.406       .  A
C1197      C1202   1.404       .  A
C1197      H1204   1.083       .  S
C1198      C1199   1.410       .  A
C1199      C1200   1.402       .  A
C1199      N1206   1.437       .  S
C1200      C1201   1.402       .  A
C1200      H1205   1.084       .  S
C1201      C1202   1.408       .  A
C1202      N1203   1.438       .  S
N1203      H1207   1.046       .  S
N1203      H1208   1.046       .  S
N1206      H1209   1.045       .  S
N1206      H1210   1.046       .  S
C1211      C1212   1.405       .  A
C1211      C1216   1.406       .  A
C1211      H1218   1.084       .  S
C1212      C1213   1.414       .  A
C1213      C1214   1.408       .  A
C1213      N1220   1.439       .  S
C1214      C1215   1.406       .  A
C1214      H1219   1.084       .  S
C1215      C1216   1.417       .  A
C1216      N1217   1.432       .  S
N1217      H1221   1.045       .  S
N1217      H1222   1.045   1_556  S
N1220      H1223   1.046       .  S
N1220      H1224   1.046   1_565  S
C1225      C1226   1.403       .  A
C1225      C1230   1.400       .  A
C1225      H1232   1.084       .  S
C1226      C1227   1.412       .  A
C1227      C1228   1.405       .  A
C1227      N1234   1.433       .  S
C1228      C1229   1.402       .  A
C1228      H1233   1.084       .  S
C1229      C1230   1.413       .  A
C1230      N1231   1.433       .  S
N1231      H1235   1.045       .  S
N1231      H1236   1.045       .  S
N1234      H1237   1.045       .  S
N1234      H1238   1.046       .  S
C1239      C1240   1.405       .  A
C1239      C1244   1.400       .  A
C1239      H1246   1.084       .  S
C1240      C1241   1.409       .  A
C1241      C1242   1.404       .  A
C1241      N1248   1.432       .  S
C1242      C1243   1.403       .  A
C1242      H1247   1.084       .  S
C1243      C1244   1.412       .  A
C1244      N1245   1.432       .  S
N1245      H1249   1.046       .  S
N1245      H1250   1.045       .  S
N1248      H1251   1.046       .  S
N1248      H1252   1.046       .  S
C1253      C1254   1.405       .  A
C1253      C1258   1.407       .  A
C1253      H1260   1.084       .  S
C1254      C1255   1.414       .  A
C1255      C1256   1.411       .  A
C1255      N1262   1.437       .  S
C1256      C1257   1.404       .  A
C1256      H1261   1.084       .  S
C1257      C1258   1.413       .  A
C1258      N1259   1.438       .  S
N1259      H1263   1.046       .  S
N1259      H1264   1.046       .  S
N1262      H1265   1.046       .  S
N1262      H1266   1.046       .  S
C1267      C1268   1.407       .  A
C1267      C1272   1.409       .  A
C1267      H1274   1.084       .  S
C1268      C1269   1.409       .  A
C1269      C1270   1.404       .  A
C1269      N1276   1.432       .  S
C1270      C1271   1.405       .  A
C1270      H1275   1.084       .  S
C1271      C1272   1.411       .  A
C1272      N1273   1.436       .  S
N1273      H1277   1.046       .  S
N1273      H1278   1.046   1_455  S
N1276      H1279   1.046       .  S
N1276      H1280   1.046       .  S
C1281      C1282   1.404       .  A
C1281      C1286   1.403       .  A
C1281      H1288   1.084       .  S
C1282      C1283   1.415       .  A
C1283      C1284   1.399       .  A
C1283      N1290   1.433       .  S
C1284      C1285   1.404       .  A
C1284      H1289   1.084       .  S
C1285      C1286   1.417       .  A
C1286      N1287   1.438       .  S
N1287      H1291   1.045       .  S
N1287      H1292   1.042       .  S
N1290      H1293   1.045       .  S
N1290      H1294   1.044       .  S
C1295      C1296   1.406       .  A
C1295      C1300   1.412       .  A
C1295      H1302   1.084       .  S
C1296      C1297   1.417       .  A
C1297      C1298   1.399       .  A
C1297      N1304   1.433       .  S
C1298      C1299   1.405       .  A
C1298      H1303   1.084       .  S
C1299      C1300   1.414       .  A
C1300      N1301   1.437       .  S
N1301      H1305   1.046       .  S
N1301      H1306   1.046   1_455  S
N1304      H1307   1.046       .  S
N1304      H1308   1.044       .  S
C1309      C1310   1.403       .  A
C1309      C1314   1.411       .  A
C1309      H1316   1.084       .  S
C1310      C1311   1.412       .  A
C1311      C1312   1.405       .  A
C1311      N1318   1.438   1_556  S
C1312      C1313   1.405       .  A
C1312      H1317   1.084       .  S
C1313      C1314   1.420       .  A
C1314      N1315   1.437       .  S
N1315      H1319   1.046       .  S
N1315      H1320   1.046       .  S
N1318      H1321   1.046       .  S
N1318      H1322   1.045       .  S
C1323      C1324   1.403       .  A
C1323      C1328   1.406       .  A
C1323      H1330   1.084       .  S
C1324      C1325   1.406       .  A
C1325      C1326   1.404       .  A
C1325      N1332   1.432       .  S
C1326      C1327   1.407       .  A
C1326      H1331   1.084       .  S
C1327      C1328   1.412       .  A
C1328      N1329   1.437       .  S
N1329      H1333   1.046       .  S
N1329      H1334   1.046       .  S
N1332      H1335   1.046       .  S
N1332      H1336   1.045       .  S
C1337      C1338   1.404       .  A
C1337      C1342   1.406       .  A
C1337      H1344   1.083   1_556  S
C1338      C1339   1.422       .  A
C1339      C1340   1.410       .  A
C1339      N1346   1.439       .  S
C1340      C1341   1.407       .  A
C1340      H1345   1.084       .  S
C1341      C1342   1.412       .  A
C1342      N1343   1.432       .  S
N1343      H1347   1.046   1_556  S
N1343      H1348   1.046   1_556  S
N1346      H1349   1.042   1_455  S
N1346      H1350   1.046   1_455  S
C1351      C1352   1.405       .  A
C1351      C1356   1.402       .  A
C1351      H1358   1.084       .  S
C1352      C1353   1.412       .  A
C1353      C1354   1.403       .  A
C1353      N1360   1.432       .  S
C1354      C1355   1.403       .  A
C1354      H1359   1.084       .  S
C1355      C1356   1.414       .  A
C1356      N1357   1.432       .  S
N1357      H1361   1.044       .  S
N1357      H1362   1.045   1_556  S
N1360      H1363   1.046       .  S
N1360      H1364   1.045       .  S
C1365      C1366   1.407       .  A
C1365      C1370   1.412       .  A
C1365      H1372   1.083       .  S
C1366      C1367   1.413       .  A
C1367      C1368   1.404       .  A
C1367      N1374   1.438       .  S
C1368      C1369   1.402       .  A
C1368      H1373   1.084       .  S
C1369      C1370   1.411       .  A
C1370      N1371   1.438       .  S
N1371      H1375   1.046       .  S
N1371      H1376   1.045       .  S
N1374      H1377   1.046       .  S
N1374      H1378   1.046       .  S
C1379      C1380   1.406       .  A
C1379      C1384   1.399       .  A
C1379      H1386   1.084       .  S
C1380      C1381   1.416       .  A
C1381      C1382   1.409       .  A
C1381      N1388   1.437       .  S
C1382      C1383   1.403       .  A
C1382      H1387   1.084       .  S
C1383      C1384   1.412       .  A
C1384      N1385   1.433       .  S
N1385      H1389   1.044       .  S
N1385      H1390   1.046       .  S
N1388      H1391   1.046       .  S
N1388      H1392   1.046       .  S
C1393      C1394   1.404       .  A
C1393      C1398   1.401       .  A
C1393      H1400   1.084       .  S
C1394      C1395   1.410       .  A
C1395      C1396   1.402       .  A
C1395      N1402   1.431       .  S
C1396      C1397   1.401       .  A
C1396      H1401   1.084       .  S
C1397      C1398   1.413       .  A
C1398      N1399   1.432       .  S
N1399      H1403   1.045       .  S
N1399      H1404   1.046       .  S
N1402      H1405   1.045       .  S
N1402      H1406   1.046       .  S
C1407      C1408   1.404       .  A
C1407      C1412   1.402       .  A
C1407      H1414   1.084       .  S
C1408      C1409   1.416       .  A
C1409      C1410   1.406       .  A
C1409      N1416   1.437       .  S
C1410      C1411   1.401       .  A
C1410      H1415   1.084       .  S
C1411      C1412   1.417       .  A
C1412      N1413   1.439       .  S
N1413      H1417   1.046       .  S
N1413      H1418   1.044       .  S
N1416      H1419   1.046       .  S
N1416      H1420   1.046       .  S
C1421      C1422   1.405       .  A
C1421      C1426   1.410       .  A
C1421      H1428   1.084       .  S
C1422      C1423   1.408       .  A
C1423      C1424   1.406       .  A
C1423      N1430   1.432       .  S
C1424      C1425   1.405       .  A
C1424      H1429   1.084       .  S
C1425      C1426   1.415       .  A
C1426      N1427   1.439       .  S
N1427      H1431   1.046       .  S
N1427      H1432   1.046       .  S
N1430      H1433   1.046       .  S
N1430      H1434   1.045       .  S
C1435      C1436   1.402       .  A
C1435      C1440   1.408       .  A
C1435      H1442   1.084       .  S
C1436      C1437   1.418       .  A
C1437      C1438   1.400       .  A
C1437      N1444   1.439   1_455  S
C1438      C1439   1.401       .  A
C1438      H1443   1.084       .  S
C1439      C1440   1.416       .  A
C1440      N1441   1.438       .  S
N1441      H1445   1.046       .  S
N1441      H1446   1.046       .  S
N1444      H1447   1.044       .  S
N1444      H1448   1.046   1_655  S
C1449      C1450   1.405       .  A
C1449      C1454   1.395       .  A
C1449      H1456   1.084       .  S
C1450      C1451   1.418       .  A
C1451      C1452   1.404       .  A
C1451      N1458   1.439       .  S
C1452      C1453   1.404       .  A
C1452      H1457   1.084       .  S
C1453      C1454   1.411       .  A
C1454      N1455   1.433       .  S
N1455      H1459   1.046       .  S
N1455      H1460   1.044       .  S
N1458      H1461   1.043       .  S
N1458      H1462   1.046       .  S
C1463      C1464   1.408       .  A
C1463      C1468   1.410       .  A
C1463      H1470   1.084       .  S
C1464      C1465   1.419       .  A
C1465      C1466   1.404       .  A
C1465      N1472   1.432       .  S
C1466      C1467   1.403       .  A
C1466      H1471   1.084       .  S
C1467      C1468   1.414       .  A
C1468      N1469   1.439   1_455  S
N1469      H1473   1.046       .  S
N1469      H1474   1.046       .  S
N1472      H1475   1.045       .  S
N1472      H1476   1.044       .  S
C1477      C1478   1.408       .  A
C1477      C1482   1.404       .  A
C1477      H1484   1.083       .  S
C1478      C1479   1.407       .  A
C1479      C1480   1.403       .  A
C1479      N1486   1.432       .  S
C1480      C1481   1.408       .  A
C1480      H1485   1.084       .  S
C1481      C1482   1.419       .  A
C1482      N1483   1.439       .  S
N1483      H1487   1.046       .  S
N1483      H1488   1.041       .  S
N1486      H1489   1.045       .  S
N1486      H1490   1.046       .  S
C1491      C1492   1.404       .  A
C1491      C1496   1.401       .  A
C1491      H1498   1.084       .  S
C1492      C1493   1.414       .  A
C1493      C1494   1.403       .  A
C1493      N1500   1.432       .  S
C1494      C1495   1.400       .  A
C1494      H1499   1.084       .  S
C1495      C1496   1.413       .  A
C1496      N1497   1.433       .  S
N1497      H1501   1.044       .  S
N1497      H1502   1.046       .  S
N1500      H1503   1.046       .  S
N1500      H1504   1.046       .  S
C1505      C1506   1.406       .  A
C1505      C1510   1.415       .  A
C1505      H1512   1.084       .  S
C1506      C1507   1.411       .  A
C1507      C1508   1.405       .  A
C1507      N1514   1.432       .  S
C1508      C1509   1.404       .  A
C1508      H1513   1.083       .  S
C1509      C1510   1.415       .  A
C1510      N1511   1.437       .  S
N1511      H1515   1.046       .  S
N1511      H1516   1.046       .  S
N1514      H1517   1.045       .  S
N1514      H1518   1.046       .  S
C1519      C1520   1.404       .  A
C1519      C1524   1.405       .  A
C1519      H1526   1.084       .  S
C1520      C1521   1.415       .  A
C1521      C1522   1.405       .  A
C1521      N1528   1.431       .  S
C1522      C1523   1.401       .  A
C1522      H1527   1.084       .  S
C1523      C1524   1.411       .  A
C1524      N1525   1.437       .  S
N1525      H1529   1.045       .  S
N1525      H1530   1.045       .  S
N1528      H1531   1.046       .  S
N1528      H1532   1.046       .  S
C1533      C1534   1.404       .  A
C1533      C1538   1.402       .  A
C1533      H1540   1.084       .  S
C1534      C1535   1.415       .  A
C1535      C1536   1.407       .  A
C1535      N1542   1.431       .  S
C1536      C1537   1.402       .  A
C1536      H1541   1.084       .  S
C1537      C1538   1.410       .  A
C1538      N1539   1.433   1_556  S
N1539      H1543   1.046       .  S
N1539      H1544   1.045   1_554  S
N1542      H1545   1.046       .  S
N1542      H1546   1.046       .  S
C1547      C1548   1.409       .  A
C1547      C1552   1.408       .  A
C1547      H1554   1.084       .  S
C1548      C1549   1.417       .  A
C1549      C1550   1.409       .  A
C1549      N1556   1.438       .  S
C1550      C1551   1.402       .  A
C1550      H1555   1.083   1_556  S
C1551      C1552   1.415       .  A
C1552      N1553   1.432       .  S
N1553      H1557   1.045       .  S
N1553      H1558   1.046       .  S
N1556      H1559   1.046       .  S
N1556      H1560   1.045   1_556  S
C1561      C1562   1.402       .  A
C1561      C1566   1.405       .  A
C1561      H1568   1.084       .  S
C1562      C1563   1.418       .  A
C1563      C1564   1.403       .  A
C1563      N1570   1.439       .  S
C1564      C1565   1.405       .  A
C1564      H1569   1.084       .  S
C1565      C1566   1.411       .  A
C1566      N1567   1.431       .  S
N1567      H1571   1.045       .  S
N1567      H1572   1.046       .  S
N1570      H1573   1.044   1_556  S
N1570      H1574   1.046       .  S
C1575      C1576   1.401       .  A
C1575      C1580   1.408       .  A
C1575      H1582   1.084       .  S
C1576      C1577   1.414       .  A
C1577      C1578   1.403       .  A
C1577      N1584   1.433       .  S
C1578      C1579   1.406       .  A
C1578      H1583   1.084       .  S
C1579      C1580   1.415       .  A
C1580      N1581   1.437       .  S
N1581      H1585   1.046       .  S
N1581      H1586   1.045       .  S
N1584      H1587   1.046       .  S
N1584      H1588   1.044   1_455  S
C1589      C1590   1.403       .  A
C1589      C1594   1.409       .  A
C1589      H1596   1.084       .  S
C1590      C1591   1.413       .  A
C1591      C1592   1.398       .  A
C1591      N1598   1.434   1_556  S
C1592      C1593   1.405       .  A
C1592      H1597   1.084       .  S
C1593      C1594   1.413       .  A
C1594      N1595   1.437       .  S
N1595      H1599   1.046       .  S
N1595      H1600   1.045       .  S
N1598      H1601   1.046       .  S
N1598      H1602   1.045       .  S
