geometry optimzed in LAMMPS
_audit_creation_date              2020-12-01 
_audit_creation_method            'lammps2cif' 
_symmetry_space_group_name_H-M    'P1' 
_symmetry_Int_Tables_number       1 
_symmetry_cell_setting            triclinic 
loop_ 
_symmetry_equiv_pos_as_xyz 
  x,y,z 
_cell_length_a                    38.52978398 
_cell_length_b                    38.528857020540805 
_cell_length_c                    46.06047808024218 
_cell_angle_alpha                 89.98060035452087 
_cell_angle_beta                  90.02034255255093 
_cell_angle_gamma                 119.98581272658028 
loop_ 
_atom_site_label 
_atom_site_type_symbol 
_atom_site_fract_x 
_atom_site_fract_y 
_atom_site_fract_z 
_atom_site_charge 
O1          O  0.78122925  0.67031014  0.32026291    -0.69500
O2          O  0.89062523  0.72070053  0.34299817    -0.69800
O3          O  0.85075183  0.69712360  0.29209593    -0.69600
O4          O  0.82111393  0.69393018  0.37118933    -0.69600
O5          O  0.81637595  0.63555373  0.37599606    -0.69600
O6          O  0.84590811  0.63869164  0.29682678    -0.69600
O7          O  0.88585797  0.66230110  0.34775107    -0.69600
O8          O  0.77643741  0.61191041  0.32510022    -0.69700
V9          V  0.83583989  0.69437617  0.33172706     1.35200
V10         V  0.83123621  0.63824722  0.33632897     1.35200
C11         C  0.76053341  0.63261304  0.31841075     0.79700
C12         C  0.90654057  0.69999281  0.34964610     0.79700
C13         C  0.85264019  0.66816136  0.28095921     0.79600
C14         C  0.81442508  0.66451482  0.38709091     0.79600
O15         O  0.10919615  0.83072706  0.40888880    -0.69500
O16         O  0.21863321  0.89046448  0.43146386    -0.69800
O17         O  0.17852712  0.87379016  0.38058610    -0.69600
O18         O  0.14918386  0.84736727  0.45973271    -0.69600
O19         O  0.15449169  0.79403906  0.45504496    -0.69600
O20         O  0.18377726  0.82043560  0.37584619    -0.69600
O21         O  0.22390321  0.83712361  0.42669866    -0.69600
O22         O  0.11446087  0.77737431  0.40417419    -0.69700
V23         V  0.16400131  0.85955268  0.42008464     1.35200
V24         V  0.16907440  0.80828984  0.41553579     1.35200
C25         C  0.09352622  0.79412325  0.40228200     0.79700
C26         C  0.23959698  0.87373426  0.43329736     0.79700
C27         C  0.18532397  0.85113938  0.36469441     0.79600
C28         C  0.14743431  0.81657228  0.47087200     0.79600
O29         O  0.55249925  0.99666968  0.01392943    -0.69500
O30         O  0.44306688  0.94692219  0.49135394    -0.69800
O31         O  0.51249008  0.97340420  0.46302941    -0.69600
O32         O  0.48309508  0.97023438  0.04222352    -0.69600
O33         O  0.48822149  0.02879500  0.03754511    -0.69600
O34         O  0.51771754  0.03201546  0.45841164    -0.69600
O35         O  0.44822982  0.00549453  0.48663733    -0.69600
O36         O  0.55766559  0.05525462  0.00930017    -0.69700
V37         V  0.49788246  0.97294472  0.00254387     1.35200
V38         V  0.50285695  0.02924683  0.99805903     1.35200
C39         C  0.57339385  0.03434372  0.01586527     0.79700
C40         C  0.42732312  0.96780779  0.48476775     0.79700
C41         C  0.51944659  0.00299316  0.44722367     0.79600
C42         C  0.48137268  0.99928043  0.05338877     0.79600
O43         O  0.21933180  0.32861916  0.18116739    -0.69500
O44         O  0.10983475  0.27805236  0.15870085    -0.69800
O45         O  0.17926242  0.30488386  0.13031909    -0.69600
O46         O  0.14994318  0.30187613  0.20953980    -0.69600
O47         O  0.15455192  0.36018921  0.20467811    -0.69600
O48         O  0.18403849  0.36328519  0.12557515    -0.69600
O49         O  0.11452591  0.33639886  0.15380215    -0.69600
O50         O  0.22400521  0.38697700  0.17640852    -0.69700
V51         V  0.16467406  0.30448563  0.16984194     1.35200
V52         V  0.16918350  0.36056904  0.16520732     1.35200
C53         C  0.23998906  0.36631521  0.18301105     0.79700
C54         C  0.09386056  0.29868918  0.15200565     0.79700
C55         C  0.18599627  0.33435728  0.11445256     0.79600
C56         C  0.14799867  0.33085249  0.22061786     0.79600
O57         O  0.88607265  0.22195152  0.09762445    -0.69500
O58         O  0.77668389  0.16332712  0.07480369    -0.69800
O59         O  0.81644115  0.17962160  0.12575904    -0.69600
O60         O  0.84629448  0.20566062  0.04664392    -0.69600
O61         O  0.85077142  0.15184941  0.04207342    -0.69600
O62         O  0.82096095  0.12582879  0.12123498    -0.69600
O63         O  0.78115399  0.10950863  0.07024736    -0.69600
O64         O  0.89057791  0.16815617  0.09303910    -0.69700
V65         V  0.83146048  0.19158779  0.08612205     1.35200
V66         V  0.83578309  0.13988218  0.08173476     1.35200
C67         C  0.90663099  0.20480672  0.09961306     0.79700
C68         C  0.76061337  0.12667357  0.06824364     0.79700
C69         C  0.81432386  0.14871187  0.13699592     0.79600
C70         C  0.85288284  0.18277452  0.03085631     0.79600
O71         O  0.55267646  0.55580328  0.26408946    -0.69500
O72         O  0.44321621  0.49658864  0.24156718    -0.69800
O73         O  0.48326969  0.51292262  0.29237858    -0.69600
O74         O  0.51258765  0.53947231  0.21324004    -0.69600
O75         O  0.51752174  0.48595339  0.20837315    -0.69600
O76         O  0.48826151  0.45943038  0.28755821    -0.69600
O77         O  0.44815831  0.44306846  0.23671885    -0.69600
O78         O  0.55763806  0.50230027  0.25919584    -0.69700
V79         V  0.49803714  0.52515348  0.25272682     1.35200
V80         V  0.50280628  0.47373203  0.24805215     1.35200
C81         C  0.57346895  0.53889065  0.26588275     0.79700
C82         C  0.42736965  0.45998396  0.23492125     0.79700
C83         C  0.48145670  0.48207017  0.30346493     0.79600
C84         C  0.51929843  0.51680345  0.19730010     0.79600
O85         O  0.22381131  0.33906436  0.40394754    -0.69500
O86         O  0.16476918  0.38949042  0.42652551    -0.69800
O87         O  0.20741402  0.36259624  0.45484628    -0.69600
O88         O  0.18117139  0.36588216  0.37564272    -0.69600
O89         O  0.12753238  0.30751306  0.38037277    -0.69600
O90         O  0.15381369  0.30417947  0.45949601    -0.69600
O91         O  0.11115728  0.33110171  0.43127538    -0.69600
O92         O  0.17017355  0.28067666  0.40862738    -0.69700
V93         V  0.19324296  0.36313367  0.41533325     1.35200
V94         V  0.14171240  0.30701569  0.41985859     1.35200
C95         C  0.20679808  0.30137390  0.40202569     0.79700
C96         C  0.12814580  0.36880016  0.43314083     0.79700
C97         C  0.18470348  0.33305664  0.47065802     0.79600
C98         C  0.15033563  0.33690195  0.36448845     0.79600
O99         O  0.33755846  0.22438325  0.34752775    -0.69500
O100        O  0.38775612  0.16512677  0.32501322    -0.69800
O101        O  0.36124968  0.20803399  0.29666335    -0.69600
O102        O  0.36401631  0.18143286  0.37585159    -0.69600
O103        O  0.30558480  0.12792462  0.37094879    -0.69600
O104        O  0.30275654  0.15458458  0.29183392    -0.69600
O105        O  0.32930369  0.11164958  0.32006924    -0.69600
O106        O  0.27909502  0.17088968  0.34268500    -0.69700
V107        V  0.36151023  0.19370214  0.33617203     1.35200
V108        V  0.30532544  0.14230633  0.33147591     1.35200
C109        C  0.29987018  0.20748459  0.34935848     0.79700
C110        C  0.36700300  0.12855246  0.31828996     0.79700
C111        C  0.33180398  0.18540905  0.28074627     0.79600
C112        C  0.33496078  0.15056304  0.38690475     0.79600
O113        O  0.99634686  0.44501847  0.48708353    -0.69500
O114        O  0.94563844  0.50376470  0.00978908    -0.69800
O115        O  0.96911759  0.48740781  0.45888288    -0.69600
O116        O  0.97282035  0.46135069  0.03801453    -0.69600
O117        O  0.03110153  0.51513303  0.04263340    -0.69600
O118        O  0.02744752  0.54114492  0.46343985    -0.69600
O119        O  0.00394036  0.55753711  0.01436220    -0.69600
O120        O  0.05464400  0.49877503  0.49173438    -0.69700
V121        V  0.97211833  0.47543552  0.99852903     1.35200
V122        V  0.02815154  0.52710058  0.00295578     1.35200
C123        C  0.03404748  0.46213008  0.48515689     0.79700
C124        C  0.96624744  0.54042473  0.01632853     0.79700
C125        C  0.99793561  0.51828900  0.44766018     0.79600
C126        C  0.00227552  0.48421375  0.05382656     0.79600
O127        O  0.61308364  0.83845211  0.17611201    -0.69500
O128        O  0.66289278  0.77882701  0.15348623    -0.69800
O129        O  0.63951338  0.79543873  0.20437999    -0.69600
O130        O  0.63638537  0.82181604  0.12525538    -0.69600
O131        O  0.69498820  0.87517559  0.12989476    -0.69600
O132        O  0.69805018  0.84885777  0.20911350    -0.69600
O133        O  0.72145366  0.83220890  0.15825003    -0.69600
O134        O  0.67164962  0.89186017  0.18077248    -0.69700
V135        V  0.63911529  0.80967596  0.16489684     1.35200
V136        V  0.69540252  0.86098508  0.16941909     1.35200
C137        C  0.63397359  0.87507591  0.18267659     0.79700
C138        C  0.70057858  0.79560610  0.15162529     0.79700
C139        C  0.66898404  0.81808151  0.22025546     0.79600
C140        C  0.66541197  0.85256381  0.11407758     0.79600
O141        O  0.84682897  0.69848208  0.04209677    -0.69500
O142        O  0.87311167  0.69525758  0.12128482    -0.69800
O143        O  0.88948758  0.67166992  0.07040015    -0.69600
O144        O  0.83044573  0.72211319  0.09296472    -0.69600
O145        O  0.77683104  0.66373045  0.09772651    -0.69600
O146        O  0.83586254  0.61328423  0.07512077    -0.69600
O147        O  0.81950859  0.63685425  0.12598191    -0.69600
O148        O  0.79320299  0.64010454  0.04683200    -0.69700
V149        V  0.85891849  0.69575131  0.08177806     1.35200
V150        V  0.80739307  0.63963671  0.08632859     1.35200
C151        C  0.81598861  0.66950757  0.03094836     0.79700
C152        C  0.85040329  0.66575667  0.13712512     0.79700
C153        C  0.87248960  0.63397452  0.06851578     0.79600
C154        C  0.79382328  0.70143091  0.09958617     0.79600
O155        O  0.50397999  0.94810344  0.24139124    -0.69500
O156        O  0.44441593  0.99795374  0.26400034    -0.69800
O157        O  0.46097935  0.97453581  0.21311045    -0.69600
O158        O  0.48741777  0.97148865  0.29224892    -0.69600
O159        O  0.54080272  0.03005952  0.28754841    -0.69600
O160        O  0.51438507  0.03308182  0.20836710    -0.69600
O161        O  0.49780791  0.05650995  0.25923484    -0.69600
O162        O  0.55739060  0.00665316  0.23665956    -0.69700
V163        V  0.47524026  0.97416526  0.25259868     1.35200
V164        V  0.52655551  0.03044214  0.24804165     1.35200
C165        C  0.54058644  0.96897026  0.23478336     0.79700
C166        C  0.46120931  0.03563585  0.26586731     0.79700
C167        C  0.48361145  0.00401226  0.19723249     0.79600
C168        C  0.51819594  0.00052403  0.30339609     0.79600
O169        O  0.38682881  0.22344408  0.07484247    -0.69500
O170        O  0.33547557  0.11399443  0.09759564    -0.69800
O171        O  0.35932787  0.15383941  0.04664249    -0.69600
O172        O  0.36302004  0.18365532  0.12575889    -0.69600
O173        O  0.30488957  0.17950701  0.12107932    -0.69600
O174        O  0.30122003  0.14973171  0.04192620    -0.69600
O175        O  0.27735969  0.10986732  0.09285786    -0.69600
O176        O  0.32871467  0.21933192  0.07013710    -0.69700
V177        V  0.36002513  0.16864565  0.08612200     1.35200
V178        V  0.30417056  0.16467840  0.08158949     1.35200
C179        C  0.36642556  0.23970015  0.06822217     0.79700
C180        C  0.29776307  0.09361936  0.09950576     0.79700
C181        C  0.32998806  0.14749229  0.03077360     0.79600
C182        C  0.33431289  0.18599512  0.13690988     0.79600
O183        O  0.44354721  0.44749375  0.01398649    -0.69500
O184        O  0.50209606  0.55695991  0.49137735    -0.69800
O185        O  0.45982728  0.48741885  0.46307647    -0.69600
O186        O  0.48584508  0.51701382  0.04226805    -0.69600
O187        O  0.53970069  0.51263360  0.03762223    -0.69600
O188        O  0.51363296  0.48293609  0.45849145    -0.69600
O189        O  0.55592615  0.55253951  0.48669418    -0.69600
O190        O  0.49738655  0.44306956  0.00939214    -0.69700
V191        V  0.47388014  0.50214213  0.00258928     1.35200
V192        V  0.52561322  0.49788343  0.99813630     1.35200
C193        C  0.46072440  0.42696512  0.01593936     0.79700
C194        C  0.53873973  0.57307050  0.48478558     0.79700
C195        C  0.48270091  0.48080463  0.44728732     0.79600
C196        C  0.51679144  0.51913354  0.05345121     0.79600
O197        O  0.10770134  0.78118094  0.18137987    -0.69500
O198        O  0.16683024  0.89062423  0.15876027    -0.69800
O199        O  0.12419827  0.82114440  0.13046167    -0.69600
O200        O  0.15038648  0.85065765  0.20966733    -0.69600
O201        O  0.20401558  0.84588341  0.20497929    -0.69600
O202        O  0.17776492  0.81623653  0.12587616    -0.69600
O203        O  0.22041708  0.88577767  0.15404465    -0.69600
O204        O  0.16132058  0.77636704  0.17677143    -0.69700
V205        V  0.13832085  0.83581220  0.16998219     1.35200
V206        V  0.18983047  0.83116017  0.16550778     1.35200
C207        C  0.12467669  0.76046069  0.18331897     0.79700
C208        C  0.20344428  0.90650699  0.15213009     0.79700
C209        C  0.14695193  0.81435723  0.11466811     0.79600
C210        C  0.18126505  0.85258802  0.22082539     0.79600
O211        O  0.96834361  0.48268746  0.20877568    -0.69500
O212        O  0.97090779  0.51185701  0.28795454    -0.69800
O213        O  0.99416361  0.55196889  0.23710178    -0.69600
O214        O  0.94506514  0.44254892  0.25961071    -0.69600
O215        O  0.00383430  0.44820588  0.26444753    -0.69600
O216        O  0.05292915  0.55760913  0.24191639    -0.69600
O217        O  0.02969001  0.51753367  0.29273756    -0.69600
O218        O  0.02710957  0.48833485  0.21358941    -0.69700
V219        V  0.97075759  0.49736493  0.24845216     1.35200
V220        V  0.02724123  0.50280559  0.25308288     1.35200
C221        C  0.99759964  0.48129709  0.19767343     0.79700
C222        C  0.00048549  0.51901229  0.30383854     0.79700
C223        C  0.03183012  0.57309886  0.23528339     0.79600
C224        C  0.96616805  0.42706750  0.26626151     0.79600
O225        O  0.79349433  0.15486800  0.29673112    -0.69500
O226        O  0.82014916  0.18404103  0.37591967    -0.69800
O227        O  0.83675400  0.22418249  0.32509559    -0.69600
O228        O  0.77686637  0.11475957  0.34757515    -0.69600
O229        O  0.83011628  0.10934008  0.34275083    -0.69600
O230        O  0.88999815  0.21877431  0.32018365    -0.69600
O231        O  0.87341394  0.17866350  0.37105245    -0.69600
O232        O  0.84670923  0.14939128  0.29191841    -0.69700
V233        V  0.80785846  0.16936737  0.33623801     1.35200
V234        V  0.85902451  0.16415248  0.33156677     1.35200
C235        C  0.81596643  0.14781582  0.28083007     0.79700
C236        C  0.85088244  0.18556662  0.38699628     0.79700
C237        C  0.87331907  0.23978954  0.31840131     0.79600
C238        C  0.79353159  0.09374333  0.34939658     0.79600
O239        O  0.71955513  0.89067329  0.40829709    -0.69500
O240        O  0.66923604  0.78123774  0.43091147    -0.69800
O241        O  0.69282930  0.82125276  0.38002018    -0.69600
O242        O  0.69602467  0.85075006  0.45914869    -0.69600
O243        O  0.63758993  0.84590556  0.45444595    -0.69600
O244        O  0.63441883  0.81644774  0.37526238    -0.69600
O245        O  0.61081405  0.77640638  0.42614142    -0.69600
O246        O  0.66114294  0.88587724  0.40355489    -0.69700
V247        V  0.69326333  0.83587379  0.41950806     1.35200
V248        V  0.63711714  0.83123727  0.41494346     1.35200
C249        C  0.69883592  0.90658338  0.40167784     0.79700
C250        C  0.63154214  0.76050122  0.43276631     0.79700
C251        C  0.66342811  0.81462962  0.36412558     0.79600
C252        C  0.66711169  0.85272888  0.47028290     0.79600
C253        C  0.71781878  0.94716614  0.39134232    -0.16300
C254        C  0.73418542  0.98067309  0.38150838     0.07800
C255        C  0.75398811  0.01965918  0.36951876     0.09600
C256        C  0.77158999  0.05316202  0.35969873    -0.17100
C257        C  0.94765308  0.38647177  0.27655251    -0.16300
C258        C  0.93174568  0.35294303  0.28634299     0.07800
C259        C  0.91246220  0.31391668  0.29828973     0.09600
C260        C  0.89517687  0.28038553  0.30809077    -0.17100
C261        C  0.05036248  0.61369996  0.22501693    -0.16300
C262        C  0.06634674  0.64724811  0.21526498     0.07800
C263        C  0.08572651  0.68630104  0.20337346     0.09600
C264        C  0.10301582  0.71985135  0.19361274    -0.17100
C265        C  0.61260235  0.71987388  0.44305212    -0.16300
C266        C  0.59652111  0.68631754  0.45281059     0.07800
C267        C  0.57724653  0.64725392  0.46470708     0.09600
C268        C  0.56015345  0.61369589  0.47447544    -0.17100
C269        C  0.22506498  0.94708337  0.14173939    -0.16300
C270        C  0.24240667  0.98057061  0.13185376     0.07800
C271        C  0.26203468  0.01954058  0.11979533     0.09600
C272        C  0.27844151  0.05303173  0.10990650    -0.17100
C273        C  0.38575296  0.28029768  0.05786313    -0.16300
C274        C  0.40220539  0.31381750  0.04803566     0.07800
C275        C  0.42189656  0.35283065  0.03606724     0.09600
C276        C  0.43924375  0.38635589  0.02625873    -0.17100
C277        C  0.66858965  0.81009682  0.25078128    -0.16300
C278        C  0.66724225  0.80613689  0.27682839     0.07800
C279        C  0.66523663  0.80493199  0.30750441     0.09600
C280        C  0.66386989  0.80724205  0.33357372    -0.17100
C281        C  0.66710495  0.86077704  0.50075232    -0.16300
C282        C  0.66666717  0.86397866  0.02679817     0.07800
C283        C  0.66597161  0.86383628  0.05749812     0.09600
C284        C  0.66550202  0.86047850  0.08357142    -0.17100
C285        C  0.71937300  0.77378387  0.14132415    -0.16300
C286        C  0.73549449  0.75635383  0.13155291     0.07800
C287        C  0.75493690  0.73673389  0.11964738     0.09600
C288        C  0.77221112  0.72045012  0.10988053    -0.17100
C289        C  0.61522004  0.89692400  0.19296562    -0.16300
C290        C  0.59914704  0.91438330  0.20274810     0.07800
C291        C  0.57971753  0.93397899  0.21468246     0.09600
C292        C  0.56237666  0.95016723  0.22447502    -0.17100
C293        C  0.99792161  0.52609922  0.41714347    -0.16300
C294        C  0.99850931  0.52950961  0.39107018     0.07800
C295        C  0.99948967  0.52983564  0.36037297     0.09600
C296        C  0.00020437  0.52683812  0.33432371    -0.17100
C297        C  0.99812716  0.47386655  0.16713993    -0.16300
C298        C  0.99936234  0.47143324  0.14107363     0.07800
C299        C  0.00107388  0.47246572  0.11039118     0.09600
C300        C  0.00214390  0.47630585  0.08434085    -0.17100
C301        C  0.89410278  0.61497860  0.05820207    -0.16300
C302        C  0.91140930  0.59875332  0.04840231     0.07800
C303        C  0.93092689  0.57924403  0.03645436     0.09600
C304        C  0.94717458  0.56196014  0.02665280    -0.17100
C305        C  0.33449224  0.14247771  0.41742224    -0.16300
C306        C  0.33321824  0.13854512  0.44347248     0.07800
C307        C  0.33140296  0.13746793  0.47415811     0.09600
C308        C  0.33022895  0.13992762  0.00023012    -0.17100
C309        C  0.33436579  0.19401820  0.16739595    -0.16300
C310        C  0.33379412  0.19712015  0.19344748     0.07800
C311        C  0.33281948  0.19683973  0.22415007     0.09600
C312        C  0.33210065  0.19338840  0.25022706    -0.17100
C313        C  0.38595643  0.10692515  0.30793885    -0.16300
C314        C  0.40225786  0.08973065  0.29808114     0.07800
C315        C  0.42193320  0.07043241  0.28605787     0.09600
C316        C  0.43940307  0.05440837  0.27620746    -0.17100
C317        C  0.10651488  0.38779808  0.44342715    -0.16300
C318        C  0.08914326  0.40398539  0.45318287     0.07800
C319        C  0.06950504  0.42341144  0.46507653     0.09600
C320        C  0.05316078  0.44062240  0.47484466    -0.17100
C321        C  0.22837111  0.28239022  0.39163861    -0.16300
C322        C  0.24557538  0.26613514  0.38172582     0.07800
C323        C  0.26491196  0.24655040  0.36962746     0.09600
C324        C  0.28098943  0.22916704  0.35972401    -0.17100
C325        C  0.47482293  0.47290684  0.41678538    -0.16300
C326        C  0.47129754  0.46995965  0.39072272     0.07800
C327        C  0.47080989  0.47044222  0.36002451     0.09600
C328        C  0.47369178  0.47403248  0.33396359    -0.17100
C329        C  0.52466000  0.52680221  0.08397627    -0.16300
C330        C  0.52842503  0.52943604  0.11003424     0.07800
C331        C  0.52934404  0.52858673  0.14071646     0.09600
C332        C  0.52681585  0.52480680  0.16677537    -0.17100
C333        C  0.85888417  0.19299993  0.41753112    -0.16300
C334        C  0.86261356  0.19544709  0.44359662     0.07800
C335        C  0.86337010  0.19445057  0.47428205     0.09600
C336        C  0.86064845  0.19064909  0.00033743    -0.17100
C337        C  0.80785954  0.14001588  0.25033731    -0.16300
C338        C  0.80418470  0.13706330  0.22428131     0.07800
C339        C  0.80358886  0.13744709  0.19358019     0.09600
C340        C  0.80645648  0.14089230  0.16750882    -0.17100
C341        C  0.14252465  0.33645108  0.33392742    -0.16300
C342        C  0.13881112  0.33498261  0.30785754     0.07800
C343        C  0.13793069  0.33280610  0.27718660     0.09600
C344        C  0.14047020  0.33132592  0.25114379    -0.17100
C345        C  0.19273701  0.33299182  0.50113060    -0.16300
C346        C  0.19631954  0.33332202  0.02718023     0.07800
C347        C  0.19679204  0.33388280  0.05788289     0.09600
C348        C  0.19384852  0.33427377  0.08395435    -0.17100
C349        C  0.05324935  0.27960056  0.14167691    -0.16300
C350        C  0.01972677  0.26325483  0.13184848     0.07800
C351        C  0.98072152  0.24362698  0.11985189     0.09600
C352        C  0.94721477  0.22630347  0.11000048    -0.17100
C353        C  0.28061105  0.38533228  0.19326790    -0.16300
C354        C  0.31416094  0.40152766  0.20301791     0.07800
C355        C  0.35320597  0.42100223  0.21490899     0.09600
C356        C  0.38675454  0.43831144  0.22466161    -0.17100
C357        C  0.52618156  0.00069159  0.33389859    -0.16300
C358        C  0.52974354  0.00134319  0.35996160     0.07800
C359        C  0.53021705  0.00229323  0.39066065     0.09600
C360        C  0.52728769  0.00290384  0.41672248    -0.17100
C361        C  0.47374064  0.99957824  0.08390836    -0.16300
C362        C  0.47110300  0.00072831  0.10996292     0.07800
C363        C  0.47192048  0.00245854  0.14064484     0.09600
C364        C  0.47566064  0.00363977  0.16670589    -0.17100
C365        C  0.61399070  0.05305609  0.02619282    -0.16300
C366        C  0.64750827  0.06898882  0.03601380     0.07800
C367        C  0.68651756  0.08816119  0.04800205     0.09600
C368        C  0.72003038  0.10523048  0.05785109    -0.17100
C369        C  0.18927988  0.86032455  0.25133424    -0.16300
C370        C  0.19334629  0.86310354  0.27737041     0.07800
C371        C  0.19472757  0.86249686  0.30804669     0.09600
C372        C  0.19257046  0.85893625  0.33412681    -0.17100
C373        C  0.13932881  0.80841568  0.50132944    -0.16300
C374        C  0.13599698  0.80462493  0.02736336     0.07800
C375        C  0.13594406  0.80386594  0.05806258     0.09600
C376        C  0.13914971  0.80660859  0.08414755    -0.17100
C377        C  0.28026027  0.89563467  0.44350255    -0.16300
C378        C  0.31388477  0.91312960  0.45314469     0.07800
C379        C  0.35304643  0.93278140  0.46488550     0.09600
C380        C  0.38666823  0.94900748  0.47453806    -0.17100
C381        C  0.80669272  0.66483817  0.41759454    -0.16300
C382        C  0.80392986  0.66605468  0.44363607     0.07800
C383        C  0.80456995  0.66787923  0.47431830     0.09600
C384        C  0.80816320  0.66912135  0.00039479    -0.17100
C385        C  0.85846449  0.66580011  0.16760681    -0.16300
C386        C  0.86222246  0.66638640  0.19365232     0.07800
C387        C  0.86300601  0.66732134  0.22435378     0.09600
C388        C  0.86032152  0.66797318  0.25043578    -0.17100
C389        C  0.71997322  0.61362532  0.30802002    -0.16300
C390        C  0.68649713  0.59739406  0.29813096     0.07800
C391        C  0.64754273  0.57786995  0.28607784     0.09600
C392        C  0.61405427  0.56054436  0.27621430    -0.17100
C393        C  0.94709492  0.71896628  0.36004533    -0.16300
C394        C  0.98056030  0.73521575  0.36995291     0.07800
C395        C  0.01949559  0.75482230  0.38203542     0.09600
C396        C  0.05296505  0.77227354  0.39192495    -0.17100
O397        O  0.78122926  0.67031013  0.82026292    -0.69500
O398        O  0.89062524  0.72070052  0.84299818    -0.69800
O399        O  0.85075184  0.69712358  0.79209594    -0.69600
O400        O  0.82111394  0.69393019  0.87118933    -0.69600
O401        O  0.81637593  0.63555372  0.87599608    -0.69600
O402        O  0.84590814  0.63869163  0.79682680    -0.69600
O403        O  0.88585797  0.66230109  0.84775111    -0.69600
O404        O  0.77643743  0.61191040  0.82510022    -0.69700
V405        V  0.83583990  0.69437616  0.83172707     1.35200
V406        V  0.83123621  0.63824722  0.83632899     1.35200
C407        C  0.76053342  0.63261304  0.81841075     0.79700
C408        C  0.90654056  0.69999279  0.84964612     0.79700
C409        C  0.85264021  0.66816135  0.78095923     0.79600
C410        C  0.81442506  0.66451482  0.88709092     0.79600
O411        O  0.10919615  0.83072703  0.90888878    -0.69500
O412        O  0.21863319  0.89046446  0.93146387    -0.69800
O413        O  0.17852714  0.87379014  0.88058609    -0.69600
O414        O  0.14918383  0.84736724  0.95973270    -0.69600
O415        O  0.15449170  0.79403904  0.95504495    -0.69600
O416        O  0.18377727  0.82043557  0.87584619    -0.69600
O417        O  0.22390322  0.83712360  0.92669866    -0.69600
O418        O  0.11446088  0.77737428  0.90417419    -0.69700
V419        V  0.16400131  0.85955265  0.92008463     1.35200
V420        V  0.16907441  0.80828982  0.91553579     1.35200
C421        C  0.09352625  0.79412322  0.90228199     0.79700
C422        C  0.23959699  0.87373425  0.93329737     0.79700
C423        C  0.18532399  0.85113936  0.86469441     0.79600
C424        C  0.14743430  0.81657225  0.97087200     0.79600
O425        O  0.55249925  0.99666970  0.51392945    -0.69500
O426        O  0.44306689  0.94692219  0.99135391    -0.69800
O427        O  0.51249011  0.97340420  0.96302939    -0.69600
O428        O  0.48309508  0.97023441  0.54222354    -0.69600
O429        O  0.48822146  0.02879502  0.53754511    -0.69600
O430        O  0.51771755  0.03201546  0.95841163    -0.69600
O431        O  0.44822984  0.00549454  0.98663733    -0.69600
O432        O  0.55766557  0.05525464  0.50930020    -0.69700
V433        V  0.49788245  0.97294473  0.50254389     1.35200
V434        V  0.50285694  0.02924684  0.49805904     1.35200
C435        C  0.57339383  0.03434373  0.51586529     0.79700
C436        C  0.42732312  0.96780779  0.98476773     0.79700
C437        C  0.51944661  0.00299317  0.94722365     0.79600
C438        C  0.48137266  0.99928046  0.55338878     0.79600
O439        O  0.21933178  0.32861915  0.68116742    -0.69500
O440        O  0.10983473  0.27805241  0.65870086    -0.69800
O441        O  0.17926240  0.30488386  0.63031911    -0.69600
O442        O  0.14994315  0.30187618  0.70953982    -0.69600
O443        O  0.15455194  0.36018928  0.70467811    -0.69600
O444        O  0.18403851  0.36328520  0.62557515    -0.69600
O445        O  0.11452594  0.33639894  0.65380215    -0.69600
O446        O  0.22400523  0.38697701  0.67640853    -0.69700
V447        V  0.16467404  0.30448565  0.66984196     1.35200
V448        V  0.16918352  0.36056908  0.66520732     1.35200
C449        C  0.23998906  0.36631521  0.68301107     0.79700
C450        C  0.09386056  0.29868925  0.65200565     0.79700
C451        C  0.18599626  0.33435726  0.61445257     0.79600
C452        C  0.14799866  0.33085256  0.72061786     0.79600
O453        O  0.88607264  0.22195155  0.59762444    -0.69500
O454        O  0.77668387  0.16332712  0.57480370    -0.69800
O455        O  0.81644115  0.17962161  0.62575904    -0.69600
O456        O  0.84629445  0.20566063  0.54664391    -0.69600
O457        O  0.85077138  0.15184942  0.54207340    -0.69600
O458        O  0.82096102  0.12582885  0.62123498    -0.69600
O459        O  0.78115399  0.10950862  0.57024740    -0.69600
O460        O  0.89057794  0.16815623  0.59303906    -0.69700
V461        V  0.83146047  0.19158781  0.58612205     1.35200
V462        V  0.83578310  0.13988221  0.58173475     1.35200
C463        C  0.90663100  0.20480678  0.59961303     0.79700
C464        C  0.76061336  0.12667356  0.56824367     0.79700
C465        C  0.81432390  0.14871191  0.63699593     0.79600
C466        C  0.85288279  0.18277453  0.53085631     0.79600
O467        O  0.55267647  0.55580334  0.76408946    -0.69500
O468        O  0.44321622  0.49658868  0.74156718    -0.69800
O469        O  0.48326970  0.51292266  0.79237857    -0.69600
O470        O  0.51258767  0.53947238  0.71324004    -0.69600
O471        O  0.51752180  0.48595348  0.70837314    -0.69600
O472        O  0.48826152  0.45943042  0.78755819    -0.69600
O473        O  0.44815835  0.44306852  0.73671882    -0.69600
O474        O  0.55763809  0.50230034  0.75919584    -0.69700
V475        V  0.49803716  0.52515353  0.75272681     1.35200
V476        V  0.50280631  0.47373209  0.74805214     1.35200
C477        C  0.57346897  0.53889072  0.76588275     0.79700
C478        C  0.42736967  0.45998401  0.73492123     0.79700
C479        C  0.48145671  0.48207020  0.80346493     0.79600
C480        C  0.51929847  0.51680353  0.69730010     0.79600
O481        O  0.22381129  0.33906438  0.90394752    -0.69500
O482        O  0.16476915  0.38949042  0.92652550    -0.69800
O483        O  0.20741401  0.36259626  0.95484626    -0.69600
O484        O  0.18117134  0.36588216  0.87564271    -0.69600
O485        O  0.12753234  0.30751306  0.88037277    -0.69600
O486        O  0.15381370  0.30417949  0.95949600    -0.69600
O487        O  0.11115726  0.33110170  0.93127538    -0.69600
O488        O  0.17017354  0.28067667  0.90862736    -0.69700
V489        V  0.19324293  0.36313368  0.91533324     1.35200
V490        V  0.14171238  0.30701570  0.91985859     1.35200
C491        C  0.20679806  0.30137392  0.90202568     0.79700
C492        C  0.12814577  0.36880016  0.93314084     0.79700
C493        C  0.18470348  0.33305667  0.97065800     0.79600
C494        C  0.15033558  0.33690195  0.86448845     0.79600
O495        O  0.33755843  0.22438323  0.84752777    -0.69500
O496        O  0.38775606  0.16512671  0.82501325    -0.69800
O497        O  0.36124966  0.20803397  0.79666337    -0.69600
O498        O  0.36401623  0.18143281  0.87585161    -0.69600
O499        O  0.30558473  0.12792458  0.87094879    -0.69600
O500        O  0.30275650  0.15458459  0.79183393    -0.69600
O501        O  0.32930362  0.11164955  0.82006924    -0.69600
O502        O  0.27909497  0.17088967  0.84268502    -0.69700
V503        V  0.36151018  0.19370211  0.83617205     1.35200
V504        V  0.30532538  0.14230632  0.83147591     1.35200
C505        C  0.29987015  0.20748458  0.84935849     0.79700
C506        C  0.36700291  0.12855243  0.81828998     0.79700
C507        C  0.33180396  0.18540904  0.78074628     0.79600
C508        C  0.33496070  0.15056299  0.88690477     0.79600
O509        O  0.99634687  0.44501848  0.98708353    -0.69500
O510        O  0.94563844  0.50376471  0.50978909    -0.69800
O511        O  0.96911760  0.48740781  0.95888287    -0.69600
O512        O  0.97282036  0.46135070  0.53801454    -0.69600
O513        O  0.03110154  0.51513302  0.54263340    -0.69600
O514        O  0.02744753  0.54114492  0.96343985    -0.69600
O515        O  0.00394037  0.55753711  0.51436221    -0.69600
O516        O  0.05464401  0.49877505  0.99173440    -0.69700
V517        V  0.97211833  0.47543552  0.49852904     1.35200
V518        V  0.02815154  0.52710058  0.50295577     1.35200
C519        C  0.03404750  0.46213008  0.98515690     0.79700
C520        C  0.96624745  0.54042475  0.51632855     0.79700
C521        C  0.99793562  0.51828901  0.94766018     0.79600
C522        C  0.00227553  0.48421376  0.55382656     0.79600
O523        O  0.61308365  0.83845216  0.67611204    -0.69500
O524        O  0.66289274  0.77882703  0.65348620    -0.69800
O525        O  0.63951339  0.79543875  0.70437999    -0.69600
O526        O  0.63638533  0.82181609  0.62525538    -0.69600
O527        O  0.69498819  0.87517560  0.62989475    -0.69600
O528        O  0.69805019  0.84885779  0.70911349    -0.69600
O529        O  0.72145363  0.83220890  0.65825001    -0.69600
O530        O  0.67164964  0.89186022  0.68077247    -0.69700
V531        V  0.63911528  0.80967600  0.66489684     1.35200
V532        V  0.69540252  0.86098510  0.66941908     1.35200
C533        C  0.63397363  0.87507595  0.68267660     0.79700
C534        C  0.70057854  0.79560609  0.65162526     0.79700
C535        C  0.66898406  0.81808154  0.72025543     0.79600
C536        C  0.66541194  0.85256384  0.61407758     0.79600
O537        O  0.84682900  0.69848206  0.54209677    -0.69500
O538        O  0.87311165  0.69525760  0.62128483    -0.69800
O539        O  0.88948758  0.67166991  0.57040019    -0.69600
O540        O  0.83044573  0.72211320  0.59296469    -0.69600
O541        O  0.77683105  0.66373046  0.59772652    -0.69600
O542        O  0.83586252  0.61328422  0.57512078    -0.69600
O543        O  0.81950858  0.63685426  0.62598192    -0.69600
O544        O  0.79320298  0.64010455  0.54683201    -0.69700
V545        V  0.85891849  0.69575132  0.58177807     1.35200
V546        V  0.80739306  0.63963672  0.58632860     1.35200
C547        C  0.81598863  0.66950756  0.53094836     0.79700
C548        C  0.85040327  0.66575669  0.63712513     0.79700
C549        C  0.87248960  0.63397450  0.56851581     0.79600
C550        C  0.79382327  0.70143094  0.59958616     0.79600
O551        O  0.50398005  0.94810350  0.74139126    -0.69500
O552        O  0.44441591  0.99795376  0.76400032    -0.69800
O553        O  0.46097940  0.97453584  0.71311045    -0.69600
O554        O  0.48741776  0.97148870  0.79224892    -0.69600
O555        O  0.54080274  0.03005955  0.78754841    -0.69600
O556        O  0.51438507  0.03308190  0.70836712    -0.69600
O557        O  0.49780789  0.05650998  0.75923488    -0.69600
O558        O  0.55739063  0.00665323  0.73665955    -0.69700
V559        V  0.47524028  0.97416531  0.75259867     1.35200
V560        V  0.52655552  0.03044219  0.74804167     1.35200
C561        C  0.54058648  0.96897034  0.73478338     0.79700
C562        C  0.46120931  0.03563585  0.76586731     0.79700
C563        C  0.48361148  0.00401232  0.69723250     0.79600
C564        C  0.51819595  0.00052406  0.80339610     0.79600
O565        O  0.38682884  0.22344406  0.57484249    -0.69500
O566        O  0.33547556  0.11399441  0.59759562    -0.69800
O567        O  0.35932790  0.15383942  0.54664249    -0.69600
O568        O  0.36302003  0.18365528  0.62575890    -0.69600
O569        O  0.30488959  0.17950702  0.62107932    -0.69600
O570        O  0.30122006  0.14973172  0.54192619    -0.69600
O571        O  0.27735969  0.10986733  0.59285785    -0.69600
O572        O  0.32871471  0.21933192  0.57013709    -0.69700
V573        V  0.36002514  0.16864564  0.58612200     1.35200
V574        V  0.30417059  0.16467841  0.58158948     1.35200
C575        C  0.36642562  0.23970017  0.56822217     0.79700
C576        C  0.29776306  0.09361936  0.59950574     0.79700
C577        C  0.32998810  0.14749231  0.53077360     0.79600
C578        C  0.33431289  0.18599510  0.63690988     0.79600
O579        O  0.44354717  0.44749374  0.51398650    -0.69500
O580        O  0.50209612  0.55695993  0.99137732    -0.69800
O581        O  0.45982733  0.48741886  0.96307646    -0.69600
O582        O  0.48584504  0.51701381  0.54226807    -0.69600
O583        O  0.53970066  0.51263360  0.53762224    -0.69600
O584        O  0.51363301  0.48293610  0.95849144    -0.69600
O585        O  0.55592620  0.55253953  0.98669417    -0.69600
O586        O  0.49738652  0.44306956  0.50939215    -0.69700
V587        V  0.47388010  0.50214212  0.50258930     1.35200
V588        V  0.52561318  0.49788343  0.49813631     1.35200
C589        C  0.46072436  0.42696510  0.51593937     0.79700
C590        C  0.53873977  0.57307049  0.98478557     0.79700
C591        C  0.48270095  0.48080463  0.94728730     0.79600
C592        C  0.51679141  0.51913354  0.55345121     0.79600
O593        O  0.10770139  0.78118094  0.68137987    -0.69500
O594        O  0.16683023  0.89062423  0.65876029    -0.69800
O595        O  0.12419829  0.82114441  0.63046168    -0.69600
O596        O  0.15038649  0.85065764  0.70966734    -0.69600
O597        O  0.20401563  0.84588348  0.70497929    -0.69600
O598        O  0.17776494  0.81623653  0.62587617    -0.69600
O599        O  0.22041708  0.88577770  0.65404463    -0.69600
O600        O  0.16132066  0.77636708  0.67677145    -0.69700
V601        V  0.13832087  0.83581220  0.66998220     1.35200
V602        V  0.18983051  0.83116020  0.66550778     1.35200
C603        C  0.12467675  0.76046071  0.68331898     0.79700
C604        C  0.20344426  0.90650700  0.65213008     0.79700
C605        C  0.14695195  0.81435723  0.61466813     0.79600
C606        C  0.18126508  0.85258806  0.72082539     0.79600
O607        O  0.96834364  0.48268752  0.70877569    -0.69500
O608        O  0.97090785  0.51185705  0.78795455    -0.69800
O609        O  0.99416369  0.55196894  0.73710180    -0.69600
O610        O  0.94506514  0.44254895  0.75961071    -0.69600
O611        O  0.00383429  0.44820587  0.76444754    -0.69600
O612        O  0.05292921  0.55760913  0.74191639    -0.69600
O613        O  0.02969006  0.51753368  0.79273756    -0.69600
O614        O  0.02710957  0.48833483  0.71358941    -0.69700
V615        V  0.97075764  0.49736497  0.74845217     1.35200
V616        V  0.02724125  0.50280559  0.75308288     1.35200
C617        C  0.99759964  0.48129710  0.69767344     0.79700
C618        C  0.00048555  0.51901232  0.80383855     0.79700
C619        C  0.03183021  0.57309889  0.73528340     0.79600
C620        C  0.96616804  0.42706753  0.76626150     0.79600
O621        O  0.79349435  0.15486808  0.79673112    -0.69500
O622        O  0.82014915  0.18404102  0.87591969    -0.69800
O623        O  0.83675402  0.22418254  0.82509563    -0.69600
O624        O  0.77686636  0.11475959  0.84757513    -0.69600
O625        O  0.83011627  0.10934010  0.84275082    -0.69600
O626        O  0.88999815  0.21877434  0.82018365    -0.69600
O627        O  0.87341395  0.17866352  0.87105245    -0.69600
O628        O  0.84670922  0.14939132  0.79191841    -0.69700
V629        V  0.80785846  0.16936741  0.83623802     1.35200
V630        V  0.85902450  0.16415251  0.83156677     1.35200
C631        C  0.81596643  0.14781589  0.78083007     0.79700
C632        C  0.85088244  0.18556661  0.88699630     0.79700
C633        C  0.87331907  0.23978956  0.81840134     0.79600
C634        C  0.79353158  0.09374336  0.84939655     0.79600
O635        O  0.71955509  0.89067334  0.90829707    -0.69500
O636        O  0.66923608  0.78123778  0.93091143    -0.69800
O637        O  0.69282931  0.82125282  0.88002015    -0.69600
O638        O  0.69602467  0.85075009  0.95914867    -0.69600
O639        O  0.63758992  0.84590557  0.95444593    -0.69600
O640        O  0.63441880  0.81644770  0.87526237    -0.69600
O641        O  0.61081408  0.77640637  0.92614143    -0.69600
O642        O  0.66114288  0.88587723  0.90355485    -0.69700
V643        V  0.69326333  0.83587383  0.91950803     1.35200
V644        V  0.63711712  0.83123727  0.91494345     1.35200
C645        C  0.69883585  0.90658338  0.90167781     0.79700
C646        C  0.63154220  0.76050126  0.93276629     0.79700
C647        C  0.66342810  0.81462963  0.86412558     0.79600
C648        C  0.66711169  0.85272890  0.97028289     0.79600
C649        C  0.71781869  0.94716616  0.89134226    -0.16300
C650        C  0.73418532  0.98067307  0.88150832     0.07800
C651        C  0.75398806  0.01965920  0.86951870     0.09600
C652        C  0.77158995  0.05316201  0.85969868    -0.17100
C653        C  0.94765303  0.38647177  0.77655252    -0.16300
C654        C  0.93174566  0.35294308  0.78634299     0.07800
C655        C  0.91246217  0.31391668  0.79828975     0.09600
C656        C  0.89517688  0.28038559  0.80809078    -0.17100
C657        C  0.05036258  0.61369998  0.72501695    -0.16300
C658        C  0.06634686  0.64724814  0.71526499     0.07800
C659        C  0.08572662  0.68630106  0.70337348     0.09600
C660        C  0.10301592  0.71985139  0.69361276    -0.17100
C661        C  0.61260242  0.71987387  0.94305212    -0.16300
C662        C  0.59652122  0.68631760  0.95281057     0.07800
C663        C  0.57724659  0.64725391  0.96470708     0.09600
C664        C  0.56015353  0.61369594  0.97447542    -0.17100
C665        C  0.22506494  0.94708338  0.64173938    -0.16300
C666        C  0.24240662  0.98057061  0.63185375     0.07800
C667        C  0.26203464  0.01954058  0.61979531     0.09600
C668        C  0.27844148  0.05303172  0.60990648    -0.17100
C669        C  0.38575301  0.28029766  0.55786315    -0.16300
C670        C  0.40220544  0.31381752  0.54803565     0.07800
C671        C  0.42189655  0.35283061  0.53606725     0.09600
C672        C  0.43924374  0.38635591  0.52625873    -0.17100
C673        C  0.66858968  0.81009684  0.75078128    -0.16300
C674        C  0.66724227  0.80613690  0.77682835     0.07800
C675        C  0.66523663  0.80493200  0.80750441     0.09600
C676        C  0.66386988  0.80724205  0.83357369    -0.17100
C677        C  0.66710495  0.86077704  0.00075231    -0.16300
C678        C  0.66666715  0.86397868  0.52679817     0.07800
C679        C  0.66597157  0.86383632  0.55749812     0.09600
C680        C  0.66550197  0.86047854  0.58357142    -0.17100
C681        C  0.71937294  0.77378387  0.64132412    -0.16300
C682        C  0.73549446  0.75635382  0.63155286     0.07800
C683        C  0.75493687  0.73673392  0.61964736     0.09600
C684        C  0.77221113  0.72045014  0.60988050    -0.17100
C685        C  0.61522008  0.89692408  0.69296566    -0.16300
C686        C  0.59914712  0.91438337  0.70274813     0.07800
C687        C  0.57971758  0.93397909  0.71468250     0.09600
C688        C  0.56237673  0.95016731  0.72447504    -0.17100
C689        C  0.99792163  0.52609923  0.91714347    -0.16300
C690        C  0.99850935  0.52950964  0.89107018     0.07800
C691        C  0.99948973  0.52983567  0.86037298     0.09600
C692        C  0.00020444  0.52683816  0.83432371    -0.17100
C693        C  0.99812715  0.47386656  0.66713992    -0.16300
C694        C  0.99936233  0.47143325  0.64107364     0.07800
C695        C  0.00107387  0.47246573  0.61039117     0.09600
C696        C  0.00214391  0.47630586  0.58434086    -0.17100
C697        C  0.89410277  0.61497859  0.55820211    -0.16300
C698        C  0.91140931  0.59875331  0.54840235     0.07800
C699        C  0.93092689  0.57924403  0.53645440     0.09600
C700        C  0.94717461  0.56196014  0.52665283    -0.17100
C701        C  0.33449214  0.14247765  0.91742224    -0.16300
C702        C  0.33321814  0.13854505  0.94347249     0.07800
C703        C  0.33140289  0.13746788  0.97415812     0.09600
C704        C  0.33022900  0.13992766  0.50023012    -0.17100
C705        C  0.33436579  0.19401817  0.66739596    -0.16300
C706        C  0.33379412  0.19712013  0.69344748     0.07800
C707        C  0.33281948  0.19683972  0.72415008     0.09600
C708        C  0.33210064  0.19338840  0.75022706    -0.17100
C709        C  0.38595636  0.10692508  0.80793885    -0.16300
C710        C  0.40225777  0.08973062  0.79808116     0.07800
C711        C  0.42193316  0.07043237  0.78605786     0.09600
C712        C  0.43940301  0.05440838  0.77620748    -0.17100
C713        C  0.10651487  0.38779805  0.94342716    -0.16300
C714        C  0.08914323  0.40398540  0.95318291     0.07800
C715        C  0.06950506  0.42341142  0.96507656     0.09600
C716        C  0.05316078  0.44062243  0.97484470    -0.17100
C717        C  0.22837111  0.28239024  0.89163860    -0.16300
C718        C  0.24557537  0.26613516  0.88172582     0.07800
C719        C  0.26491195  0.24655042  0.86962747     0.09600
C720        C  0.28098941  0.22916705  0.85972402    -0.17100
C721        C  0.47482298  0.47290684  0.91678538    -0.16300
C722        C  0.47129758  0.46995965  0.89072270     0.07800
C723        C  0.47080991  0.47044224  0.86002451     0.09600
C724        C  0.47369180  0.47403250  0.83396356    -0.17100
C725        C  0.52465999  0.52680224  0.58397628    -0.16300
C726        C  0.52842505  0.52943610  0.61003423     0.07800
C727        C  0.52934408  0.52858682  0.64071647     0.09600
C728        C  0.52681590  0.52480690  0.66677536    -0.17100
C729        C  0.85888418  0.19299991  0.91753112    -0.16300
C730        C  0.86261360  0.19544708  0.94359664     0.07800
C731        C  0.86337016  0.19445056  0.97428205     0.09600
C732        C  0.86064839  0.19064910  0.50033742    -0.17100
C733        C  0.80785955  0.14001595  0.75033732    -0.16300
C734        C  0.80418472  0.13706336  0.72428130     0.07800
C735        C  0.80358890  0.13744714  0.69358021     0.09600
C736        C  0.80645652  0.14089234  0.66750881    -0.17100
C737        C  0.14252458  0.33645109  0.83392743    -0.16300
C738        C  0.13881105  0.33498264  0.80785754     0.07800
C739        C  0.13793064  0.33280616  0.77718660     0.09600
C740        C  0.14047018  0.33132600  0.75114379    -0.17100
C741        C  0.19273702  0.33299186  0.00113059    -0.16300
C742        C  0.19631952  0.33332198  0.52718026     0.07800
C743        C  0.19679202  0.33388275  0.55788289     0.09600
C744        C  0.19384850  0.33427373  0.58395438    -0.17100
C745        C  0.05324937  0.27960066  0.64167690    -0.16300
C746        C  0.01972677  0.26325492  0.63184845     0.07800
C747        C  0.98072155  0.24362708  0.61985186     0.09600
C748        C  0.94721478  0.22630355  0.61000044    -0.17100
C749        C  0.28061105  0.38533226  0.69326791    -0.16300
C750        C  0.31416095  0.40152765  0.70301792     0.07800
C751        C  0.35320599  0.42100224  0.71490898     0.09600
C752        C  0.38675456  0.43831147  0.72466159    -0.17100
C753        C  0.52618157  0.00069162  0.83389859    -0.16300
C754        C  0.52974356  0.00134321  0.85996160     0.07800
C755        C  0.53021708  0.00229325  0.89066064     0.09600
C756        C  0.52728772  0.00290386  0.91672247    -0.17100
C757        C  0.47374062  0.99957829  0.58390838    -0.16300
C758        C  0.47110300  0.00072837  0.60996293     0.07800
C759        C  0.47192049  0.00245861  0.64064485     0.09600
C760        C  0.47566066  0.00363984  0.66670589    -0.17100
C761        C  0.61399069  0.05305612  0.52619286    -0.16300
C762        C  0.64750823  0.06898882  0.53601383     0.07800
C763        C  0.68651755  0.08816118  0.54800210     0.09600
C764        C  0.72003035  0.10523045  0.55785113    -0.17100
C765        C  0.18927992  0.86032458  0.75133425    -0.16300
C766        C  0.19334632  0.86310356  0.77737041     0.07800
C767        C  0.19472759  0.86249686  0.80804669     0.09600
C768        C  0.19257048  0.85893623  0.83412681    -0.17100
C769        C  0.13932880  0.80841566  0.00132943    -0.16300
C770        C  0.13599700  0.80462495  0.52736337     0.07800
C771        C  0.13594408  0.80386595  0.55806259     0.09600
C772        C  0.13914973  0.80660859  0.58414756    -0.17100
C773        C  0.28026025  0.89563466  0.94350256    -0.16300
C774        C  0.31388479  0.91312961  0.95314471     0.07800
C775        C  0.35304642  0.93278141  0.96488549     0.09600
C776        C  0.38666826  0.94900751  0.97453805    -0.17100
C777        C  0.80669269  0.66483817  0.91759455    -0.16300
C778        C  0.80392982  0.66605469  0.94363607     0.07800
C779        C  0.80456992  0.66787925  0.97431830     0.09600
C780        C  0.80816322  0.66912133  0.50039479    -0.17100
C781        C  0.85846447  0.66580013  0.66760683    -0.16300
C782        C  0.86222245  0.66638640  0.69365233     0.07800
C783        C  0.86300602  0.66732133  0.72435380     0.09600
C784        C  0.86032154  0.66797316  0.75043579    -0.17100
C785        C  0.71997325  0.61362533  0.80802000    -0.16300
C786        C  0.68649715  0.59739408  0.79813095     0.07800
C787        C  0.64754276  0.57787000  0.78607783     0.09600
C788        C  0.61405429  0.56054443  0.77621430    -0.17100
C789        C  0.94709493  0.71896627  0.86004535    -0.16300
C790        C  0.98056030  0.73521572  0.86995291     0.07800
C791        C  0.01949561  0.75482228  0.88203541     0.09600
C792        C  0.05296505  0.77227350  0.89192492    -0.17100
loop_ 
_geom_bond_atom_site_label_1 
_geom_bond_atom_site_label_2 
_geom_bond_distance 
_geom_bond_site_symmetry_2 
_ccdc_geom_bond_type 
O1            V9   1.901       .  S
O1           C11   1.263       .  A
O2            V9   1.901       .  S
O2           C12   1.263       .  A
O3            V9   1.901       .  S
O3           C13   1.263       .  A
O4            V9   1.902       .  S
O4           C14   1.263       .  A
O5           V10   1.902       .  S
O5           C14   1.263       .  A
O6           V10   1.903       .  S
O6           C13   1.263       .  A
O7           V10   1.901       .  S
O7           C12   1.263       .  A
O8           V10   1.901       .  S
O8           C11   1.263       .  A
V9           V10   2.090       .  T
C11         C389   1.436       .  S
C12         C393   1.436       .  S
C13         C388   1.438       .  S
C14         C381   1.438       .  S
O15          V23   1.901       .  S
O15          C25   1.263       .  A
O16          V23   1.902       .  S
O16          C26   1.263       .  A
O17          V23   1.902       .  S
O17          C27   1.263       .  A
O18          V23   1.901       .  S
O18          C28   1.263       .  A
O19          V24   1.903       .  S
O19          C28   1.263       .  A
O20          V24   1.902       .  S
O20          C27   1.263       .  A
O21          V24   1.901       .  S
O21          C26   1.263       .  A
O22          V24   1.901       .  S
O22          C25   1.263       .  A
V23          V24   2.090       .  T
C25         C396   1.436       .  S
C26         C377   1.437       .  S
C27         C372   1.438       .  S
C28         C373   1.437       .  S
O29          V37   1.902       .  S
O29          C39   1.263   1_565  A
O30         V433   1.901       .  S
O30          C40   1.263       .  A
O31         V433   1.903       .  S
O31          C41   1.263   1_565  A
O32          V37   1.902       .  S
O32          C42   1.263       .  A
O33          V38   1.902   1_554  S
O33          C42   1.263   1_545  A
O34         V434   1.901       .  S
O34          C41   1.263       .  A
O35         V434   1.902       .  S
O35          C40   1.263   1_545  A
O36          V38   1.902   1_554  S
O36          C39   1.263       .  A
V37         O426   1.901   1_554  S
V37         O427   1.903   1_554  S
V37          V38   2.090   1_564  T
V38         O430   1.901       .  S
V38         O431   1.902       .  S
C39         C365   1.437       .  S
C40         C380   1.437       .  S
C41         C360   1.437       .  S
C42         C361   1.437       .  S
O43          V51   1.901       .  S
O43          C53   1.263       .  A
O44          V51   1.901       .  S
O44          C54   1.263       .  A
O45          V51   1.903       .  S
O45          C55   1.263       .  A
O46          V51   1.902       .  S
O46          C56   1.263       .  A
O47          V52   1.902       .  S
O47          C56   1.263       .  A
O48          V52   1.900       .  S
O48          C55   1.263       .  A
O49          V52   1.902       .  S
O49          C54   1.263       .  A
O50          V52   1.901       .  S
O50          C53   1.263       .  A
V51          V52   2.090       .  T
C53         C353   1.436       .  S
C54         C349   1.437       .  S
C55         C348   1.437       .  S
C56         C344   1.438       .  S
O57          V65   1.902       .  S
O57          C67   1.263       .  A
O58          V65   1.901       .  S
O58          C68   1.263       .  A
O59          V65   1.901       .  S
O59          C69   1.263       .  A
O60          V65   1.902       .  S
O60          C70   1.263       .  A
O61          V66   1.902       .  S
O61          C70   1.263       .  A
O62          V66   1.903       .  S
O62          C69   1.263       .  A
O63          V66   1.902       .  S
O63          C68   1.263       .  A
O64          V66   1.902       .  S
O64          C67   1.263       .  A
V65          V66   2.090       .  T
C67         C352   1.437       .  S
C68         C368   1.437       .  S
C69         C340   1.438       .  S
C70         C336   1.438       .  S
O71          V79   1.901       .  S
O71          C81   1.263       .  A
O72          V79   1.901       .  S
O72          C82   1.263       .  A
O73          V79   1.901       .  S
O73          C83   1.263       .  A
O74          V79   1.902       .  S
O74          C84   1.263       .  A
O75          V80   1.902       .  S
O75          C84   1.263       .  A
O76          V80   1.903       .  S
O76          C83   1.263       .  A
O77          V80   1.901       .  S
O77          C82   1.263       .  A
O78          V80   1.901       .  S
O78          C81   1.263       .  A
V79          V80   2.090       .  T
C81         C392   1.436       .  S
C82         C356   1.436       .  S
C83         C328   1.437       .  S
C84         C332   1.438       .  S
O85          V93   1.901       .  S
O85          C95   1.263       .  A
O86          V93   1.901       .  S
O86          C96   1.263       .  A
O87          V93   1.903       .  S
O87          C97   1.263       .  A
O88          V93   1.902       .  S
O88          C98   1.263       .  A
O89          V94   1.902       .  S
O89          C98   1.263       .  A
O90          V94   1.901       .  S
O90          C97   1.263       .  A
O91          V94   1.902       .  S
O91          C96   1.263       .  A
O92          V94   1.901       .  S
O92          C95   1.263       .  A
V93          V94   2.090       .  T
C95         C321   1.436       .  S
C96         C317   1.437       .  S
C97         C345   1.437       .  S
C98         C341   1.438       .  S
O99         V107   1.901       .  S
O99         C109   1.263       .  A
O100        V107   1.901       .  S
O100        C110   1.263       .  A
O101        V107   1.903       .  S
O101        C111   1.263       .  A
O102        V107   1.902       .  S
O102        C112   1.263       .  A
O103        V108   1.902       .  S
O103        C112   1.263       .  A
O104        V108   1.901       .  S
O104        C111   1.263       .  A
O105        V108   1.902       .  S
O105        C110   1.263       .  A
O106        V108   1.901       .  S
O106        C109   1.263       .  A
V107        V108   2.090       .  T
C109        C324   1.436       .  S
C110        C313   1.437       .  S
C111        C312   1.438       .  S
C112        C305   1.438       .  S
O113        V517   1.902       .  S
O113        C123   1.263   1_655  A
O114        V121   1.901   1_554  S
O114        C124   1.263       .  A
O115        V517   1.901       .  S
O115        C125   1.263       .  A
O116        V121   1.902   1_554  S
O116        C126   1.263   1_655  A
O117        V122   1.902       .  S
O117        C126   1.263       .  A
O118        V518   1.903       .  S
O118        C125   1.263   1_455  A
O119        V122   1.901       .  S
O119        C124   1.263   1_455  A
O120        V518   1.901       .  S
O120        C123   1.263       .  A
V121        O509   1.902       .  S
V121        O511   1.901       .  S
V121        V122   2.090   1_656  T
V122        O514   1.903   1_554  S
V122        O516   1.901   1_554  S
C123        C320   1.437       .  S
C124        C304   1.437       .  S
C125        C293   1.437       .  S
C126        C300   1.438       .  S
O127        V135   1.901       .  S
O127        C137   1.263       .  A
O128        V135   1.902       .  S
O128        C138   1.263       .  A
O129        V135   1.902       .  S
O129        C139   1.263       .  A
O130        V135   1.901       .  S
O130        C140   1.263       .  A
O131        V136   1.903       .  S
O131        C140   1.263       .  A
O132        V136   1.902       .  S
O132        C139   1.263       .  A
O133        V136   1.901       .  S
O133        C138   1.263       .  A
O134        V136   1.901       .  S
O134        C137   1.263       .  A
V135        V136   2.090       .  T
C137        C289   1.437       .  S
C138        C285   1.437       .  S
C139        C277   1.438       .  S
C140        C284   1.437       .  S
O141        V149   1.902       .  S
O141        C151   1.263       .  A
O142        V149   1.903       .  S
O142        C152   1.263       .  A
O143        V149   1.902       .  S
O143        C153   1.263       .  A
O144        V149   1.901       .  S
O144        C154   1.263       .  A
O145        V150   1.902       .  S
O145        C154   1.263       .  A
O146        V150   1.901       .  S
O146        C153   1.263       .  A
O147        V150   1.901       .  S
O147        C152   1.263       .  A
O148        V150   1.902       .  S
O148        C151   1.263       .  A
V149        V150   2.090       .  T
C151        C384   1.438       .  S
C152        C385   1.438       .  S
C153        C301   1.437       .  S
C154        C288   1.437       .  S
O155        V163   1.901       .  S
O155        C165   1.263       .  A
O156        V163   1.901       .  S
O156        C166   1.263   1_565  A
O157        V163   1.902       .  S
O157        C167   1.263   1_565  A
O158        V163   1.901       .  S
O158        C168   1.263   1_565  A
O159        V164   1.903       .  S
O159        C168   1.263       .  A
O160        V164   1.902       .  S
O160        C167   1.263       .  A
O161        V164   1.901       .  S
O161        C166   1.263       .  A
O162        V164   1.901       .  S
O162        C165   1.263   1_545  A
V163        V164   2.090   1_565  T
C165        C292   1.437       .  S
C166        C316   1.437       .  S
C167        C364   1.437       .  S
C168        C357   1.437       .  S
O169        V177   1.901       .  S
O169        C179   1.263       .  A
O170        V177   1.902       .  S
O170        C180   1.263       .  A
O171        V177   1.902       .  S
O171        C181   1.263       .  A
O172        V177   1.901       .  S
O172        C182   1.263       .  A
O173        V178   1.903       .  S
O173        C182   1.263       .  A
O174        V178   1.902       .  S
O174        C181   1.263       .  A
O175        V178   1.901       .  S
O175        C180   1.263       .  A
O176        V178   1.902       .  S
O176        C179   1.263       .  A
V177        V178   2.090       .  T
C179        C273   1.437       .  S
C180        C272   1.437       .  S
C181        C308   1.438       .  S
C182        C309   1.438       .  S
O183        V191   1.901       .  S
O183        C193   1.263       .  A
O184        V587   1.901       .  S
O184        C194   1.263       .  A
O185        V587   1.903       .  S
O185        C195   1.263       .  A
O186        V191   1.902       .  S
O186        C196   1.263       .  A
O187        V192   1.902   1_554  S
O187        C196   1.263       .  A
O188        V588   1.901       .  S
O188        C195   1.263       .  A
O189        V588   1.902       .  S
O189        C194   1.263       .  A
O190        V192   1.901   1_554  S
O190        C193   1.263       .  A
V191        O580   1.901   1_554  S
V191        O581   1.903   1_554  S
V191        V192   2.090   1_554  T
V192        O584   1.901       .  S
V192        O585   1.902       .  S
C193        C276   1.437       .  S
C194        C268   1.437       .  S
C195        C325   1.437       .  S
C196        C329   1.438       .  S
O197        V205   1.901       .  S
O197        C207   1.263       .  A
O198        V205   1.901       .  S
O198        C208   1.263       .  A
O199        V205   1.903       .  S
O199        C209   1.263       .  A
O200        V205   1.902       .  S
O200        C210   1.263       .  A
O201        V206   1.902       .  S
O201        C210   1.263       .  A
O202        V206   1.901       .  S
O202        C209   1.263       .  A
O203        V206   1.902       .  S
O203        C208   1.263       .  A
O204        V206   1.901       .  S
O204        C207   1.263       .  A
V205        V206   2.090       .  T
C207        C264   1.437       .  S
C208        C269   1.437       .  S
C209        C376   1.437       .  S
C210        C369   1.438       .  S
O211        V219   1.902       .  S
O211        C221   1.263       .  A
O212        V219   1.903       .  S
O212        C222   1.263   1_655  A
O213        V219   1.902       .  S
O213        C223   1.263   1_655  A
O214        V219   1.901       .  S
O214        C224   1.263       .  A
O215        V220   1.902       .  S
O215        C224   1.263   1_455  A
O216        V220   1.901       .  S
O216        C223   1.263       .  A
O217        V220   1.901       .  S
O217        C222   1.263       .  A
O218        V220   1.902       .  S
O218        C221   1.263   1_455  A
V219        V220   2.090   1_655  T
C221        C297   1.438       .  S
C222        C296   1.437       .  S
C223        C261   1.437       .  S
C224        C257   1.437       .  S
O225        V233   1.903       .  S
O225        C235   1.263       .  A
O226        V233   1.902       .  S
O226        C236   1.263       .  A
O227        V233   1.901       .  S
O227        C237   1.263       .  A
O228        V233   1.901       .  S
O228        C238   1.263       .  A
O229        V234   1.901       .  S
O229        C238   1.263       .  A
O230        V234   1.902       .  S
O230        C237   1.263       .  A
O231        V234   1.902       .  S
O231        C236   1.263       .  A
O232        V234   1.901       .  S
O232        C235   1.263       .  A
V233        V234   2.090       .  T
C235        C337   1.438       .  S
C236        C333   1.438       .  S
C237        C260   1.437       .  S
C238        C256   1.436       .  S
O239        V247   1.901       .  S
O239        C249   1.263       .  A
O240        V247   1.902       .  S
O240        C250   1.263       .  A
O241        V247   1.902       .  S
O241        C251   1.263       .  A
O242        V247   1.901       .  S
O242        C252   1.263       .  A
O243        V248   1.903       .  S
O243        C252   1.263       .  A
O244        V248   1.902       .  S
O244        C251   1.263       .  A
O245        V248   1.901       .  S
O245        C250   1.263       .  A
O246        V248   1.901       .  S
O246        C249   1.263       .  A
V247        V248   2.090       .  T
C249        C253   1.436       .  S
C250        C265   1.437       .  S
C251        C280   1.438       .  S
C252        C281   1.437       .  S
C253        C254   1.206       .  T
C254        C255   1.413   1_565  S
C255        C256   1.206       .  T
C257        C258   1.207       .  T
C258        C259   1.414       .  S
C259        C260   1.207       .  T
C261        C262   1.207       .  T
C262        C263   1.414       .  S
C263        C264   1.207       .  T
C265        C266   1.207       .  T
C266        C267   1.414       .  S
C267        C268   1.207       .  T
C269        C270   1.207       .  T
C270        C271   1.414   1_565  S
C271        C272   1.207       .  T
C273        C274   1.207       .  T
C274        C275   1.414       .  S
C275        C276   1.207       .  T
C277        C278   1.207       .  T
C278        C279   1.415       .  S
C279        C280   1.207       .  T
C281        C678   1.207       .  T
C282        C677   1.207       .  T
C282        C283   1.414       .  S
C283        C284   1.207       .  T
C285        C286   1.207       .  T
C286        C287   1.414       .  S
C287        C288   1.207       .  T
C289        C290   1.207       .  T
C290        C291   1.414       .  S
C291        C292   1.207       .  T
C293        C294   1.207       .  T
C294        C295   1.414       .  S
C295        C296   1.207   1_655  T
C297        C298   1.207       .  T
C298        C299   1.414   1_655  S
C299        C300   1.207       .  T
C301        C302   1.207       .  T
C302        C303   1.414       .  S
C303        C304   1.207       .  T
C305        C306   1.207       .  T
C306        C307   1.415       .  S
C307        C704   1.207       .  T
C308        C703   1.207   1_554  T
C309        C310   1.207       .  T
C310        C311   1.415       .  S
C311        C312   1.207       .  T
C313        C314   1.207       .  T
C314        C315   1.414       .  S
C315        C316   1.207       .  T
C317        C318   1.207       .  T
C318        C319   1.414       .  S
C319        C320   1.207       .  T
C321        C322   1.206       .  T
C322        C323   1.413       .  S
C323        C324   1.206       .  T
C325        C326   1.207       .  T
C326        C327   1.414       .  S
C327        C328   1.207       .  T
C329        C330   1.207       .  T
C330        C331   1.414       .  S
C331        C332   1.207       .  T
C333        C334   1.207       .  T
C334        C335   1.415       .  S
C335        C732   1.207       .  T
C336        C731   1.207   1_554  T
C337        C338   1.207       .  T
C338        C339   1.414       .  S
C339        C340   1.207       .  T
C341        C342   1.207       .  T
C342        C343   1.415       .  S
C343        C344   1.207       .  T
C345        C742   1.207       .  T
C346        C741   1.207       .  T
C346        C347   1.414       .  S
C347        C348   1.207       .  T
C349        C350   1.207       .  T
C350        C351   1.414   1_455  S
C351        C352   1.207       .  T
C353        C354   1.206       .  T
C354        C355   1.413       .  S
C355        C356   1.206       .  T
C357        C358   1.207       .  T
C358        C359   1.414       .  S
C359        C360   1.207       .  T
C361        C362   1.207   1_565  T
C362        C363   1.414       .  S
C363        C364   1.207       .  T
C365        C366   1.207       .  T
C366        C367   1.414       .  S
C367        C368   1.207       .  T
C369        C370   1.207       .  T
C370        C371   1.415       .  S
C371        C372   1.207       .  T
C373        C770   1.207       .  T
C374        C769   1.207       .  T
C374        C375   1.414       .  S
C375        C376   1.207       .  T
C377        C378   1.207       .  T
C378        C379   1.414       .  S
C379        C380   1.207       .  T
C381        C382   1.207       .  T
C382        C383   1.415       .  S
C383        C780   1.207       .  T
C384        C779   1.207   1_554  T
C385        C386   1.207       .  T
C386        C387   1.415       .  S
C387        C388   1.207       .  T
C389        C390   1.207       .  T
C390        C391   1.413       .  S
C391        C392   1.207       .  T
C393        C394   1.207       .  T
C394        C395   1.413   1_655  S
C395        C396   1.207       .  T
O397        V405   1.901       .  S
O397        C407   1.263       .  A
O398        V405   1.901       .  S
O398        C408   1.263       .  A
O399        V405   1.901       .  S
O399        C409   1.263       .  A
O400        V405   1.902       .  S
O400        C410   1.263       .  A
O401        V406   1.902       .  S
O401        C410   1.263       .  A
O402        V406   1.903       .  S
O402        C409   1.263       .  A
O403        V406   1.901       .  S
O403        C408   1.263       .  A
O404        V406   1.901       .  S
O404        C407   1.263       .  A
V405        V406   2.090       .  T
C407        C785   1.436       .  S
C408        C789   1.436       .  S
C409        C784   1.438       .  S
C410        C777   1.438       .  S
O411        V419   1.901       .  S
O411        C421   1.263       .  A
O412        V419   1.902       .  S
O412        C422   1.263       .  A
O413        V419   1.902       .  S
O413        C423   1.263       .  A
O414        V419   1.901       .  S
O414        C424   1.263       .  A
O415        V420   1.903       .  S
O415        C424   1.263       .  A
O416        V420   1.902       .  S
O416        C423   1.263       .  A
O417        V420   1.901       .  S
O417        C422   1.263       .  A
O418        V420   1.901       .  S
O418        C421   1.263       .  A
V419        V420   2.090       .  T
C421        C792   1.436       .  S
C422        C773   1.437       .  S
C423        C768   1.438       .  S
C424        C769   1.437   1_556  S
O425        V433   1.902       .  S
O425        C435   1.263   1_565  A
O426        C436   1.263       .  A
O427        C437   1.263   1_565  A
O428        V433   1.902       .  S
O428        C438   1.263       .  A
O429        V434   1.902       .  S
O429        C438   1.263   1_545  A
O430        C437   1.263       .  A
O431        C436   1.263   1_545  A
O432        V434   1.902       .  S
O432        C435   1.263       .  A
V433        V434   2.090   1_565  T
C435        C761   1.437       .  S
C436        C776   1.437       .  S
C437        C756   1.437       .  S
C438        C757   1.437       .  S
O439        V447   1.901       .  S
O439        C449   1.263       .  A
O440        V447   1.901       .  S
O440        C450   1.263       .  A
O441        V447   1.903       .  S
O441        C451   1.263       .  A
O442        V447   1.902       .  S
O442        C452   1.263       .  A
O443        V448   1.902       .  S
O443        C452   1.263       .  A
O444        V448   1.900       .  S
O444        C451   1.263       .  A
O445        V448   1.902       .  S
O445        C450   1.263       .  A
O446        V448   1.901       .  S
O446        C449   1.263       .  A
V447        V448   2.090       .  T
C449        C749   1.436       .  S
C450        C745   1.437       .  S
C451        C744   1.437       .  S
C452        C740   1.438       .  S
O453        V461   1.902       .  S
O453        C463   1.263       .  A
O454        V461   1.901       .  S
O454        C464   1.263       .  A
O455        V461   1.901       .  S
O455        C465   1.263       .  A
O456        V461   1.902       .  S
O456        C466   1.263       .  A
O457        V462   1.902       .  S
O457        C466   1.263       .  A
O458        V462   1.903       .  S
O458        C465   1.263       .  A
O459        V462   1.902       .  S
O459        C464   1.263       .  A
O460        V462   1.902       .  S
O460        C463   1.263       .  A
V461        V462   2.090       .  T
C463        C748   1.437       .  S
C464        C764   1.437       .  S
C465        C736   1.438       .  S
C466        C732   1.438       .  S
O467        V475   1.901       .  S
O467        C477   1.263       .  A
O468        V475   1.901       .  S
O468        C478   1.263       .  A
O469        V475   1.901       .  S
O469        C479   1.263       .  A
O470        V475   1.902       .  S
O470        C480   1.263       .  A
O471        V476   1.902       .  S
O471        C480   1.263       .  A
O472        V476   1.903       .  S
O472        C479   1.263       .  A
O473        V476   1.901       .  S
O473        C478   1.263       .  A
O474        V476   1.901       .  S
O474        C477   1.263       .  A
V475        V476   2.090       .  T
C477        C788   1.436       .  S
C478        C752   1.436       .  S
C479        C724   1.437       .  S
C480        C728   1.438       .  S
O481        V489   1.901       .  S
O481        C491   1.263       .  A
O482        V489   1.901       .  S
O482        C492   1.263       .  A
O483        V489   1.903       .  S
O483        C493   1.263       .  A
O484        V489   1.902       .  S
O484        C494   1.263       .  A
O485        V490   1.902       .  S
O485        C494   1.263       .  A
O486        V490   1.901       .  S
O486        C493   1.263       .  A
O487        V490   1.902       .  S
O487        C492   1.263       .  A
O488        V490   1.901       .  S
O488        C491   1.263       .  A
V489        V490   2.090       .  T
C491        C717   1.436       .  S
C492        C713   1.437       .  S
C493        C741   1.437   1_556  S
C494        C737   1.438       .  S
O495        V503   1.901       .  S
O495        C505   1.263       .  A
O496        V503   1.901       .  S
O496        C506   1.263       .  A
O497        V503   1.903       .  S
O497        C507   1.263       .  A
O498        V503   1.902       .  S
O498        C508   1.263       .  A
O499        V504   1.902       .  S
O499        C508   1.263       .  A
O500        V504   1.901       .  S
O500        C507   1.263       .  A
O501        V504   1.902       .  S
O501        C506   1.263       .  A
O502        V504   1.901       .  S
O502        C505   1.263       .  A
V503        V504   2.090       .  T
C505        C720   1.436       .  S
C506        C709   1.437       .  S
C507        C708   1.438       .  S
C508        C701   1.438       .  S
O509        C519   1.263   1_655  A
O510        V517   1.901       .  S
O510        C520   1.263       .  A
O511        C521   1.263       .  A
O512        V517   1.902       .  S
O512        C522   1.263   1_655  A
O513        V518   1.902       .  S
O513        C522   1.263       .  A
O514        C521   1.263   1_455  A
O515        V518   1.901       .  S
O515        C520   1.263   1_455  A
O516        C519   1.263       .  A
V517        V518   2.090   1_655  T
C519        C716   1.437       .  S
C520        C700   1.437       .  S
C521        C689   1.437       .  S
C522        C696   1.438       .  S
O523        V531   1.901       .  S
O523        C533   1.263       .  A
O524        V531   1.902       .  S
O524        C534   1.263       .  A
O525        V531   1.902       .  S
O525        C535   1.263       .  A
O526        V531   1.901       .  S
O526        C536   1.263       .  A
O527        V532   1.903       .  S
O527        C536   1.263       .  A
O528        V532   1.902       .  S
O528        C535   1.263       .  A
O529        V532   1.901       .  S
O529        C534   1.263       .  A
O530        V532   1.901       .  S
O530        C533   1.263       .  A
V531        V532   2.090       .  T
C533        C685   1.437       .  S
C534        C681   1.437       .  S
C535        C673   1.438       .  S
C536        C680   1.437       .  S
O537        V545   1.902       .  S
O537        C547   1.263       .  A
O538        V545   1.903       .  S
O538        C548   1.263       .  A
O539        V545   1.902       .  S
O539        C549   1.263       .  A
O540        V545   1.901       .  S
O540        C550   1.263       .  A
O541        V546   1.902       .  S
O541        C550   1.263       .  A
O542        V546   1.901       .  S
O542        C549   1.263       .  A
O543        V546   1.901       .  S
O543        C548   1.263       .  A
O544        V546   1.902       .  S
O544        C547   1.263       .  A
V545        V546   2.090       .  T
C547        C780   1.438       .  S
C548        C781   1.438       .  S
C549        C697   1.437       .  S
C550        C684   1.437       .  S
O551        V559   1.901       .  S
O551        C561   1.263       .  A
O552        V559   1.901       .  S
O552        C562   1.263   1_565  A
O553        V559   1.902       .  S
O553        C563   1.263   1_565  A
O554        V559   1.901       .  S
O554        C564   1.263   1_565  A
O555        V560   1.903       .  S
O555        C564   1.263       .  A
O556        V560   1.902       .  S
O556        C563   1.263       .  A
O557        V560   1.901       .  S
O557        C562   1.263       .  A
O558        V560   1.901       .  S
O558        C561   1.263   1_545  A
V559        V560   2.090   1_565  T
C561        C688   1.437       .  S
C562        C712   1.437       .  S
C563        C760   1.437       .  S
C564        C753   1.437       .  S
O565        V573   1.901       .  S
O565        C575   1.263       .  A
O566        V573   1.902       .  S
O566        C576   1.263       .  A
O567        V573   1.902       .  S
O567        C577   1.263       .  A
O568        V573   1.901       .  S
O568        C578   1.263       .  A
O569        V574   1.903       .  S
O569        C578   1.263       .  A
O570        V574   1.902       .  S
O570        C577   1.263       .  A
O571        V574   1.901       .  S
O571        C576   1.263       .  A
O572        V574   1.902       .  S
O572        C575   1.263       .  A
V573        V574   2.090       .  T
C575        C669   1.437       .  S
C576        C668   1.437       .  S
C577        C704   1.438       .  S
C578        C705   1.438       .  S
O579        V587   1.901       .  S
O579        C589   1.263       .  A
O580        C590   1.263       .  A
O581        C591   1.263       .  A
O582        V587   1.902       .  S
O582        C592   1.263       .  A
O583        V588   1.902       .  S
O583        C592   1.263       .  A
O584        C591   1.263       .  A
O585        C590   1.263       .  A
O586        V588   1.901       .  S
O586        C589   1.263       .  A
V587        V588   2.090       .  T
C589        C672   1.437       .  S
C590        C664   1.437       .  S
C591        C721   1.437       .  S
C592        C725   1.438       .  S
O593        V601   1.901       .  S
O593        C603   1.263       .  A
O594        V601   1.901       .  S
O594        C604   1.263       .  A
O595        V601   1.903       .  S
O595        C605   1.263       .  A
O596        V601   1.902       .  S
O596        C606   1.263       .  A
O597        V602   1.902       .  S
O597        C606   1.263       .  A
O598        V602   1.901       .  S
O598        C605   1.263       .  A
O599        V602   1.902       .  S
O599        C604   1.263       .  A
O600        V602   1.901       .  S
O600        C603   1.263       .  A
V601        V602   2.090       .  T
C603        C660   1.437       .  S
C604        C665   1.437       .  S
C605        C772   1.437       .  S
C606        C765   1.438       .  S
O607        V615   1.902       .  S
O607        C617   1.263       .  A
O608        V615   1.903       .  S
O608        C618   1.263   1_655  A
O609        V615   1.902       .  S
O609        C619   1.263   1_655  A
O610        V615   1.901       .  S
O610        C620   1.263       .  A
O611        V616   1.902       .  S
O611        C620   1.263   1_455  A
O612        V616   1.901       .  S
O612        C619   1.263       .  A
O613        V616   1.901       .  S
O613        C618   1.263       .  A
O614        V616   1.902       .  S
O614        C617   1.263   1_455  A
V615        V616   2.090   1_655  T
C617        C693   1.438       .  S
C618        C692   1.437       .  S
C619        C657   1.437       .  S
C620        C653   1.437       .  S
O621        V629   1.903       .  S
O621        C631   1.263       .  A
O622        V629   1.902       .  S
O622        C632   1.263       .  A
O623        V629   1.901       .  S
O623        C633   1.263       .  A
O624        V629   1.901       .  S
O624        C634   1.263       .  A
O625        V630   1.901       .  S
O625        C634   1.263       .  A
O626        V630   1.902       .  S
O626        C633   1.263       .  A
O627        V630   1.902       .  S
O627        C632   1.263       .  A
O628        V630   1.901       .  S
O628        C631   1.263       .  A
V629        V630   2.090       .  T
C631        C733   1.438       .  S
C632        C729   1.438       .  S
C633        C656   1.437       .  S
C634        C652   1.436       .  S
O635        V643   1.901       .  S
O635        C645   1.263       .  A
O636        V643   1.902       .  S
O636        C646   1.263       .  A
O637        V643   1.902       .  S
O637        C647   1.263       .  A
O638        V643   1.901       .  S
O638        C648   1.263       .  A
O639        V644   1.903       .  S
O639        C648   1.263       .  A
O640        V644   1.902       .  S
O640        C647   1.263       .  A
O641        V644   1.901       .  S
O641        C646   1.263       .  A
O642        V644   1.901       .  S
O642        C645   1.263       .  A
V643        V644   2.090       .  T
C645        C649   1.436       .  S
C646        C661   1.437       .  S
C647        C676   1.438       .  S
C648        C677   1.437   1_556  S
C649        C650   1.206       .  T
C650        C651   1.413   1_565  S
C651        C652   1.206       .  T
C653        C654   1.207       .  T
C654        C655   1.414       .  S
C655        C656   1.207       .  T
C657        C658   1.207       .  T
C658        C659   1.414       .  S
C659        C660   1.207       .  T
C661        C662   1.207       .  T
C662        C663   1.414       .  S
C663        C664   1.207       .  T
C665        C666   1.207       .  T
C666        C667   1.414   1_565  S
C667        C668   1.207       .  T
C669        C670   1.207       .  T
C670        C671   1.414       .  S
C671        C672   1.207       .  T
C673        C674   1.207       .  T
C674        C675   1.415       .  S
C675        C676   1.207       .  T
C678        C679   1.414       .  S
C679        C680   1.207       .  T
C681        C682   1.207       .  T
C682        C683   1.414       .  S
C683        C684   1.207       .  T
C685        C686   1.207       .  T
C686        C687   1.414       .  S
C687        C688   1.207       .  T
C689        C690   1.207       .  T
C690        C691   1.414       .  S
C691        C692   1.207   1_655  T
C693        C694   1.207       .  T
C694        C695   1.414   1_655  S
C695        C696   1.207       .  T
C697        C698   1.207       .  T
C698        C699   1.414       .  S
C699        C700   1.207       .  T
C701        C702   1.207       .  T
C702        C703   1.415       .  S
C705        C706   1.207       .  T
C706        C707   1.415       .  S
C707        C708   1.207       .  T
C709        C710   1.207       .  T
C710        C711   1.414       .  S
C711        C712   1.207       .  T
C713        C714   1.207       .  T
C714        C715   1.414       .  S
C715        C716   1.207       .  T
C717        C718   1.206       .  T
C718        C719   1.413       .  S
C719        C720   1.206       .  T
C721        C722   1.207       .  T
C722        C723   1.414       .  S
C723        C724   1.207       .  T
C725        C726   1.207       .  T
C726        C727   1.414       .  S
C727        C728   1.207       .  T
C729        C730   1.207       .  T
C730        C731   1.415       .  S
C733        C734   1.207       .  T
C734        C735   1.414       .  S
C735        C736   1.207       .  T
C737        C738   1.207       .  T
C738        C739   1.415       .  S
C739        C740   1.207       .  T
C742        C743   1.414       .  S
C743        C744   1.207       .  T
C745        C746   1.207       .  T
C746        C747   1.414   1_455  S
C747        C748   1.207       .  T
C749        C750   1.206       .  T
C750        C751   1.413       .  S
C751        C752   1.206       .  T
C753        C754   1.207       .  T
C754        C755   1.414       .  S
C755        C756   1.207       .  T
C757        C758   1.207   1_565  T
C758        C759   1.414       .  S
C759        C760   1.207       .  T
C761        C762   1.207       .  T
C762        C763   1.414       .  S
C763        C764   1.207       .  T
C765        C766   1.207       .  T
C766        C767   1.415       .  S
C767        C768   1.207       .  T
C770        C771   1.414       .  S
C771        C772   1.207       .  T
C773        C774   1.207       .  T
C774        C775   1.414       .  S
C775        C776   1.207       .  T
C777        C778   1.207       .  T
C778        C779   1.415       .  S
C781        C782   1.207       .  T
C782        C783   1.415       .  S
C783        C784   1.207       .  T
C785        C786   1.207       .  T
C786        C787   1.413       .  S
C787        C788   1.207       .  T
C789        C790   1.207       .  T
C790        C791   1.413   1_655  S
C791        C792   1.207       .  T
