geometry optimzed in LAMMPS
_audit_creation_date              2020-12-01 
_audit_creation_method            'lammps2cif' 
_symmetry_space_group_name_H-M    'P1' 
_symmetry_Int_Tables_number       1 
_symmetry_cell_setting            triclinic 
loop_ 
_symmetry_equiv_pos_as_xyz 
  x,y,z 
_cell_length_a                    56.6564773 
_cell_length_b                    58.40910413779795 
_cell_length_c                    57.28362400425589 
_cell_angle_alpha                 89.08914297583463 
_cell_angle_beta                  89.99145689751798 
_cell_angle_gamma                 90.3167513815919 
loop_ 
_atom_site_label 
_atom_site_type_symbol 
_atom_site_fract_x 
_atom_site_fract_y 
_atom_site_fract_z 
_atom_site_charge 
N1          N  0.83405955  0.82505767  0.00505964    -0.03400
C2          C  0.83394916  0.81591170  0.02707920    -0.00900
C3          C  0.83408974  0.79229190  0.02638123    -0.23700
C4          C  0.83404484  0.78649770  0.00334277    -0.23900
C5          C  0.83387173  0.80676503  0.99057501    -0.01000
H6          H  0.83197864  0.78055165  0.04105787     0.12800
H7          H  0.83205685  0.76936164  0.99666563     0.12900
N8          N  0.77087334  0.18443437  0.00872879    -0.03400
C9          C  0.75696832  0.18665811  0.02803362    -0.00900
C10         C  0.73339918  0.18771945  0.02198791    -0.23700
C11         C  0.73229943  0.18638066  0.99834370    -0.23900
C12         C  0.75524795  0.18458839  0.99054427    -0.01000
H13         H  0.71870841  0.19111750  0.03349639     0.12800
H14         H  0.71659055  0.18848777  0.98778366     0.12900
N15         N  0.19277681  0.88624824  0.99476874    -0.03400
C16         C  0.20401880  0.88694907  0.01580945    -0.00900
C17         C  0.22813738  0.88812826  0.01285899    -0.23700
C18         C  0.23224839  0.88768943  0.98939549    -0.23900
C19         C  0.21047040  0.88627898  0.97849890    -0.01000
H20         H  0.24140958  0.88732087  0.02643537     0.12800
H21         H  0.24946603  0.88638264  0.98136325     0.12900
N22         N  0.82537245  0.03131391  0.80081388    -0.03400
C23         C  0.82648146  0.05266430  0.79083308    -0.00900
C24         C  0.82807269  0.05125871  0.76686295    -0.23700
C25         C  0.82748815  0.02854732  0.76159288    -0.23900
C26         C  0.82568173  0.01655226  0.78252274    -0.01000
H27         H  0.82708407  0.06534814  0.75439523     0.12800
H28         H  0.82657417  0.02164493  0.74419534     0.12900
N29         N  0.98056595  0.17569922  0.79441727    -0.03400
C30         C  0.96075644  0.17251207  0.78089617    -0.00900
C31         C  0.96684823  0.16471897  0.75908243    -0.23700
C32         C  0.99078583  0.16440036  0.75807731    -0.23900
C33         C  0.99905815  0.17192407  0.77933145    -0.01000
H34         H  0.95520889  0.16241974  0.74430411     0.12800
H35         H  0.00098340  0.16169630  0.74238750     0.12900
N36         N  0.98602002  0.89037033  0.79486627    -0.03400
C37         C  0.96410329  0.89336368  0.78552706    -0.00900
C38         C  0.96556554  0.89618223  0.76159981    -0.23700
C39         C  0.98883182  0.89400144  0.75573950    -0.23900
C40         C  0.00111348  0.89001864  0.77628480    -0.01000
H41         H  0.95095561  0.89641700  0.74941527     0.12800
H42         H  0.99551239  0.89261106  0.73812095     0.12900
N43         N  0.18246380  0.02475196  0.84097693    -0.03400
C44         C  0.19841252  0.04150256  0.83572152    -0.00900
C45         C  0.21726597  0.03269019  0.82351502    -0.23700
C46         C  0.21291737  0.00978129  0.82116196    -0.23900
C47         C  0.19160900  0.00532123  0.83204853    -0.01000
H48         H  0.23208990  0.04212737  0.81620850     0.12800
H49         H  0.22380425  0.99771230  0.81195997     0.12900
N50         N  0.98162659  0.82112703  0.15146833    -0.03400
C51         C  0.96315534  0.80586802  0.15221579    -0.00900
C52         C  0.97101475  0.78365177  0.15049915    -0.23700
C53         C  0.99495099  0.78470379  0.14929649    -0.23900
C54         C  0.00124439  0.80752985  0.15037822    -0.01000
H55         H  0.96051763  0.76815505  0.15201288     0.12800
H56         H  0.00670696  0.77015604  0.14999286     0.12900
N57         N  0.77542969  0.03196348  0.16419054    -0.03400
C58         C  0.76600470  0.05331113  0.16613068    -0.00900
C59         C  0.74184214  0.05204378  0.16878488    -0.23700
C60         C  0.73586281  0.02939438  0.16865789    -0.23900
C61         C  0.75656603  0.01725844  0.16598558    -0.01000
H62         H  0.73006367  0.06607477  0.17243782     0.12800
H63         H  0.71844785  0.02246930  0.17221848     0.12900
N64         N  0.97473466  0.18118082  0.21436902    -0.03400
C65         C  0.95755166  0.18128900  0.23129281    -0.00900
C66         C  0.96756043  0.18195037  0.25326277    -0.23700
C67         C  0.99135241  0.18265407  0.25026308    -0.23900
C68         C  0.99555360  0.18254040  0.22654265    -0.01000
H69         H  0.95847509  0.18382598  0.26974187     0.12800
H70         H  0.00424639  0.18538631  0.26390463     0.12900
Zr71       Zr  0.25803482  0.30059374  0.28435916     2.17500
O72         O  0.28417684  0.28380558  0.31370552    -0.51300
O73         O  0.26432271  0.34112982  0.29186073    -0.74500
O74         O  0.29840484  0.30852163  0.27363824    -0.81300
O75         O  0.20420102  0.30185520  0.32340788    -0.83000
O76         O  0.30235002  0.30390908  0.23445161    -0.78700
O77         O  0.24435002  0.30475783  0.32366862    -0.90300
O78         O  0.24569746  0.36058299  0.26261919    -0.76300
O79         O  0.25870755  0.31665342  0.24612494    -0.85700
O80         O  0.22034448  0.31784214  0.27902694    -0.85400
O81         O  0.26622292  0.26934527  0.25881225    -0.72200
O82         O  0.22984488  0.27030409  0.29025730    -0.84300
Zr83       Zr  0.19918372  0.27252815  0.22093767     2.26400
Zr84       Zr  0.26539301  0.28592277  0.22005961     2.06300
Zr85       Zr  0.19184111  0.28769081  0.28455100     2.10000
Zr86       Zr  0.22141001  0.33374664  0.24059600     1.78800
O87         O  0.17679324  0.26465542  0.31711173    -0.93100
O88         O  0.24461103  0.35484402  0.21146088    -0.40900
O89         O  0.19165540  0.30431858  0.24590974    -0.77600
O90         O  0.22732898  0.30284212  0.21418657    -0.96300
O91         O  0.23705436  0.25588180  0.22581061    -0.89600
O92         O  0.19939573  0.25627371  0.25928004    -0.92400
C93         C  0.25897530  0.35968937  0.28080854     1.01300
C94         C  0.22416164  0.30595945  0.33354700     1.14300
C95         C  0.31027559  0.30999637  0.25463343     1.05100
O96         O  0.27445067  0.31414415  0.18956988    -0.94600
O97         O  0.25387445  0.26772701  0.18291175    -0.90300
O98         O  0.21368873  0.26552281  0.18236506    -0.83500
C99         C  0.23397428  0.26303926  0.17293013     1.11700
O100        O  0.26494882  0.22336935  0.29191616    -0.96500
Zr101      Zr  0.23704217  0.23955899  0.26389624     1.88900
O102        O  0.19418070  0.23207373  0.21286052    -0.73200
O103        O  0.29752403  0.26045602  0.20974547    -0.52400
O104        O  0.26373616  0.21266934  0.24556966    -0.97100
O105        O  0.21824475  0.21743205  0.29524052    -0.54300
O106        O  0.21370100  0.21232321  0.24132522    -0.73700
C107        C  0.20053794  0.21337250  0.22304139     0.98600
O108        O  0.17244075  0.28980348  0.19245977    -0.62500
O109        O  0.16190844  0.31691706  0.29002947    -0.57300
O110        O  0.15872994  0.26355191  0.23107018    -0.94000
O111        O  0.15465726  0.26945044  0.27013184    -0.92400
O112        O  0.19453579  0.36252407  0.25531854    -0.92800
O113        O  0.19525120  0.34911114  0.21049425    -0.91600
C114        C  0.14690507  0.26246719  0.25013138     1.17500
H115        H  0.21775755  0.32990089  0.29007005     0.33400
H116        H  0.22604792  0.30843933  0.19828855     0.44300
H117        H  0.18785991  0.24417964  0.26122081     0.37800
H118        H  0.28175862  0.26336539  0.26204540     0.34300
H119        H  0.23999585  0.37103661  0.21333815     0.26100
H120        H  0.30948153  0.27052590  0.20217350     0.32000
H121        H  0.26445760  0.21763174  0.22897514     0.37900
H122        H  0.20185603  0.37736549  0.25073676     0.32400
H123        H  0.16780435  0.32615386  0.30316945     0.31300
H124        H  0.16102771  0.27110166  0.32037538     0.32900
H125        H  0.21387872  0.20266167  0.28813453     0.31900
H126        H  0.20013873  0.34164180  0.19588597     0.35900
H127        H  0.16338774  0.30115454  0.20141913     0.28600
H128        H  0.29548462  0.29611324  0.31773177     0.32900
H129        H  0.28070166  0.22871127  0.28661807     0.35700
H130        H  0.16340663  0.32721048  0.27620715     0.28300
H131        H  0.18268342  0.29923378  0.18206662     0.41200
H132        H  0.29167414  0.31283990  0.18706208     0.31300
H133        H  0.26107224  0.35420420  0.21723900     0.38900
H134        H  0.20300100  0.22513846  0.29799417     0.30700
H135        H  0.30472018  0.25581488  0.22482691     0.30800
H136        H  0.29368573  0.27245750  0.30521409     0.31100
N137        N  0.18643495  0.03840337  0.16002011    -0.03400
C138        C  0.19638359  0.05961647  0.16167242    -0.00900
C139        C  0.22046828  0.05795131  0.16486765    -0.23700
C140        C  0.22575021  0.03512503  0.16521660    -0.23900
C141        C  0.20473160  0.02345245  0.16227142    -0.01000
H142        H  0.23261818  0.07183996  0.16839850     0.12800
H143        H  0.24281512  0.02774893  0.16911245     0.12900
Zr144      Zr  0.26893047  0.76003847  0.26524854     2.17500
O145        O  0.29940256  0.73512701  0.24979962    -0.51300
O146        O  0.27007063  0.74871065  0.30656589    -0.74500
O147        O  0.30744353  0.77423102  0.27567214    -0.81300
O148        O  0.22010883  0.71624872  0.26054490    -0.83000
O149        O  0.30744672  0.81316195  0.27252983    -0.78700
O150        O  0.25961101  0.71999602  0.26691718    -0.90300
O151        O  0.24420591  0.77172041  0.32523959    -0.76300
O152        O  0.26349763  0.79625757  0.28285913    -0.85700
O153        O  0.22921214  0.75968146  0.27872460    -0.85400
O154        O  0.27699872  0.78791363  0.23491907    -0.72200
O155        O  0.24518048  0.75324558  0.23137345    -0.84300
Zr156      Zr  0.20701989  0.81779033  0.23301642     2.26400
Zr157      Zr  0.27054153  0.82436337  0.25263647     2.06300
Zr158      Zr  0.20520797  0.75340538  0.24510630     2.10000
Zr159      Zr  0.22388679  0.79569521  0.29633771     1.78800
O160        O  0.19782009  0.72630868  0.21398635    -0.93100
O161        O  0.24053504  0.82261975  0.32399610    -0.40900
O162        O  0.19887254  0.78973711  0.26304710    -0.77600
O163        O  0.23077837  0.82471086  0.26689063    -0.96300
O164        O  0.24647573  0.81817320  0.21908245    -0.89600
O165        O  0.21247928  0.78168577  0.21527166    -0.92400
C166        C  0.25952827  0.75556523  0.32506139     1.01300
C167        C  0.24053470  0.70820455  0.26640159     1.14300
C168        C  0.31719192  0.79388860  0.27806918     1.05100
O169        O  0.27697568  0.85512259  0.28016359    -0.94600
O170        O  0.25662136  0.86094913  0.23503314    -0.90300
O171        O  0.21710871  0.85752512  0.22850779    -0.83500
C172        C  0.23636422  0.86902136  0.22867338     1.11700
O173        O  0.28495310  0.75898761  0.18846273    -0.96500
Zr174      Zr  0.25192277  0.78198688  0.20164822     1.88900
O175        O  0.20473329  0.82733519  0.19156416    -0.73200
O176        O  0.30387410  0.83676666  0.22870502    -0.52400
O177        O  0.28021597  0.80343608  0.17776913    -0.97100
O178        O  0.23840069  0.75084238  0.17706552    -0.54300
O179        O  0.22885564  0.80305663  0.17222725    -0.73700
C180        C  0.21365207  0.81934586  0.17278197     0.98600
O181        O  0.17649053  0.84224445  0.24909383    -0.62500
O182        O  0.17364804  0.73786247  0.26957354    -0.57300
O183        O  0.16829159  0.80455365  0.22270838    -0.94000
O184        O  0.16698076  0.76579139  0.22827620    -0.92400
O185        O  0.19300145  0.77728498  0.31968016    -0.92800
O186        O  0.19228418  0.82094338  0.30864372    -0.91600
C187        C  0.15784441  0.78512186  0.22181627     1.17500
H188        H  0.22644665  0.74764291  0.29016123     0.33400
H189        H  0.22725850  0.83960343  0.27307259     0.44300
H190        H  0.20187642  0.77964035  0.20227048     0.37800
H191        H  0.29330284  0.78683132  0.23012452     0.34300
H192        H  0.23223093  0.81915407  0.33885932     0.26100
H193        H  0.29696247  0.84008708  0.21315136     0.32000
H194        H  0.27798329  0.79764562  0.16176029     0.37900
H195        H  0.19831742  0.76131812  0.32219425     0.32400
H196        H  0.17226478  0.72161082  0.26507591     0.31300
H197        H  0.20929455  0.71379681  0.21652476     0.32900
H198        H  0.22096805  0.75181098  0.17721236     0.31900
H199        H  0.19808973  0.83665282  0.30520505     0.35900
H200        H  0.16684124  0.83190173  0.25914666     0.28600
H201        H  0.30844575  0.72970705  0.26358813     0.32900
H202        H  0.28564937  0.74598236  0.19973734     0.35700
H203        H  0.18043001  0.73731686  0.28549959     0.28300
H204        H  0.18480269  0.85219758  0.26029930     0.41200
H205        H  0.26752763  0.85066973  0.29405608     0.31300
H206        H  0.25688313  0.81729439  0.32671549     0.38900
H207        H  0.24190478  0.73668855  0.18613410     0.30700
H208        H  0.30822485  0.85197682  0.23482959     0.30800
H209        H  0.31041541  0.74538018  0.24113779     0.31100
Zr210      Zr  0.75232996  0.26550551  0.22609715     2.17500
O211        O  0.77995376  0.28233409  0.19797163    -0.51300
O212        O  0.75843983  0.22529567  0.21716432    -0.74500
O213        O  0.79197834  0.25752504  0.23823919    -0.81300
O214        O  0.70055393  0.26257927  0.18522179    -0.83000
O215        O  0.79439950  0.26067068  0.27772388    -0.78700
O216        O  0.74074650  0.26112492  0.18633939    -0.90300
O217        O  0.73870807  0.20491717  0.24511428    -0.76300
O218        O  0.75150709  0.24892675  0.26421804    -0.85700
O219        O  0.71474791  0.24743883  0.22949346    -0.85400
O220        O  0.75948611  0.29668935  0.25209088    -0.72200
O221        O  0.72421804  0.29542438  0.21891249    -0.84300
Zr222      Zr  0.69171251  0.29148142  0.28767304     2.26400
Zr223      Zr  0.75758053  0.27973319  0.29061520     2.06300
Zr224      Zr  0.68630876  0.27705101  0.22331606     2.10000
Zr225      Zr  0.71404452  0.23100174  0.26751970     1.78800
O226        O  0.67080420  0.29986806  0.19091628    -0.93100
O227        O  0.73296702  0.20538462  0.29573864    -0.40900
O228        O  0.68465338  0.26020278  0.26185846    -0.77600
O229        O  0.71967663  0.26141065  0.29490784    -0.96300
O230        O  0.72932806  0.30936299  0.28416651    -0.89600
O231        O  0.69286818  0.30805196  0.24943638    -0.92400
C232        C  0.75236589  0.20633899  0.22718195     1.01300
C233        C  0.72097794  0.25879130  0.17594429     1.14300
C234        C  0.80298332  0.25524974  0.25761329     1.05100
O235        O  0.76869755  0.25563753  0.32382819    -0.94600
O236        O  0.74423886  0.29864615  0.32686996    -0.90300
O237        O  0.70404530  0.29886096  0.32690210    -0.83500
C238        C  0.72403321  0.30269667  0.33646838     1.11700
O239        O  0.76234681  0.34053331  0.22183914    -0.96500
Zr240      Zr  0.73018632  0.32585044  0.24607008     1.88900
O241        O  0.68485175  0.33179843  0.29511459    -0.73200
O242        O  0.78951415  0.30647166  0.29915970    -0.52400
O243        O  0.75290579  0.35622077  0.26427753    -0.97100
O244        O  0.71257589  0.34726710  0.21370293    -0.54300
O245        O  0.70454004  0.35213645  0.26702399    -0.73700
C246        C  0.69063869  0.35064212  0.28474259     0.98600
O247        O  0.66403115  0.27413393  0.31542645    -0.62500
O248        O  0.65706048  0.24719936  0.21656956    -0.57300
O249        O  0.65182548  0.29912776  0.27626360    -0.94000
O250        O  0.64880006  0.29449305  0.23688764    -0.92400
O251        O  0.68543384  0.20593974  0.24884135    -0.92800
O252        O  0.68600206  0.21513070  0.29573112    -0.91600
C253        C  0.64073658  0.30090429  0.25690461     1.17500
H254        H  0.71272148  0.23548107  0.21820923     0.33400
H255        H  0.71784802  0.25549594  0.31064858     0.44300
H256        H  0.68127130  0.31991774  0.24725178     0.37800
H257        H  0.77503078  0.30299711  0.24918982     0.34300
H258        H  0.75009931  0.20753244  0.29300601     0.26100
H259        H  0.79666543  0.31052520  0.28387410     0.32000
H260        H  0.75891816  0.34926332  0.27896074     0.37900
H261        H  0.69461398  0.19271164  0.24331678     0.32400
H262        H  0.64855230  0.25243389  0.20237925     0.31300
H263        H  0.68454024  0.30876193  0.18500281     0.32900
H264        H  0.71026072  0.36286874  0.21978507     0.31900
H265        H  0.67415263  0.22732533  0.29772385     0.35900
H266        H  0.65365090  0.26425791  0.30593789     0.28600
H267        H  0.79021756  0.26954998  0.19321896     0.32900
H268        H  0.76234264  0.33055203  0.20803125     0.35700
H269        H  0.66635024  0.23390310  0.21138288     0.28300
H270        H  0.67359023  0.26322441  0.32479379     0.41200
H271        H  0.76414304  0.23995888  0.31925781     0.31300
H272        H  0.73012810  0.21230336  0.31114570     0.38900
H273        H  0.69640495  0.34096243  0.21222154     0.30700
H274        H  0.78149335  0.32062244  0.30406499     0.30800
H275        H  0.79034758  0.29244671  0.20718133     0.31100
Zr276      Zr  0.69695740  0.75268020  0.26871884     2.17500
O277        O  0.66547800  0.72974995  0.25166687    -0.51300
O278        O  0.69142792  0.74351500  0.31007029    -0.74500
O279        O  0.70676054  0.71288997  0.27174007    -0.81300
O280        O  0.65887112  0.80460742  0.27698927    -0.83000
O281        O  0.74599590  0.70878327  0.26435510    -0.78700
O282        O  0.65814157  0.76557802  0.27877125    -0.90300
O283        O  0.72087753  0.76128269  0.32981417    -0.76300
O284        O  0.73628897  0.75071982  0.28302846    -0.85700
O285        O  0.70358889  0.78766312  0.28829739    -0.85400
O286        O  0.72145506  0.74708343  0.23507513    -0.72200
O287        O  0.68989251  0.78200559  0.23976589    -0.84300
Zr288      Zr  0.76059187  0.81119487  0.24080690     2.26400
Zr289      Zr  0.76120044  0.74635642  0.24971011     2.06300
Zr290      Zr  0.69693625  0.81724001  0.25976646     2.10000
Zr291      Zr  0.74282598  0.78570320  0.30245851     1.78800
O292        O  0.66468679  0.83479042  0.23797835    -0.93100
O293        O  0.77305393  0.76418035  0.32345139    -0.40900
O294        O  0.73653852  0.81639621  0.27464001    -0.77600
O295        O  0.76816716  0.78167909  0.26941125    -0.96300
O296        O  0.75481469  0.77601702  0.22119696    -0.89600
O297        O  0.72136738  0.81236525  0.22607914    -0.92400
C298        C  0.70246501  0.74837313  0.32897986     1.01300
C299        C  0.64888539  0.78519518  0.28198493     1.14300
C300        C  0.72551304  0.70086880  0.27065881     1.05100
O301        O  0.79257527  0.73253200  0.27523533    -0.94600
O302        O  0.79872644  0.76002486  0.23156509    -0.90300
O303        O  0.80011621  0.79888655  0.23424984    -0.83500
C304        C  0.80925874  0.77966487  0.22920172     1.11700
O305        O  0.68471515  0.75206337  0.19228573    -0.96500
Zr306      Zr  0.71563234  0.77725797  0.20675841     1.88900
O307        O  0.76897468  0.81728054  0.19952295    -0.73200
O308        O  0.76881328  0.71850681  0.21947911    -0.52400
O309        O  0.72913140  0.74954640  0.17838838    -0.97100
O310        O  0.68668773  0.79905960  0.18423311    -0.54300
O311        O  0.74016844  0.79922311  0.17912421    -0.73700
C312        C  0.75903649  0.81151810  0.18033073     0.98600
O313        O  0.78892794  0.83771443  0.25792155    -0.62500
O314        O  0.69230773  0.84320560  0.29228322    -0.57300
O315        O  0.75022570  0.85084287  0.23593776    -0.94000
O316        O  0.71119647  0.85471917  0.24448003    -0.92400
O317        O  0.72789583  0.81115009  0.33225941    -0.92800
O318        O  0.77460045  0.81009727  0.31657336    -0.91600
C319        C  0.73132523  0.86265219  0.23730073     1.17500
H320        H  0.69307883  0.78928611  0.30142884     0.33400
H321        H  0.78437329  0.78244288  0.27457216     0.44300
H322        H  0.71932197  0.82460328  0.21476325     0.37800
H323        H  0.71769968  0.73256557  0.22808062     0.34300
H324        H  0.76840727  0.76496052  0.34008428     0.26100
H325        H  0.76699003  0.72725420  0.20464810     0.32000
H326        H  0.74440659  0.75557086  0.17248331     0.37900
H327        H  0.73067889  0.80290556  0.34723646     0.32400
H328        H  0.68814266  0.83315617  0.30576325     0.31300
H329        H  0.65557807  0.82174897  0.23170065     0.32900
H330        H  0.68735193  0.79257929  0.16837766     0.31900
H331        H  0.77005281  0.82581390  0.31174221     0.35900
H332        H  0.77989809  0.84598038  0.26992704     0.28600
H333        H  0.66030870  0.71910228  0.26431118     0.32900
H334        H  0.67257196  0.75184934  0.20471609     0.35700
H335        H  0.70849541  0.84865064  0.29573714     0.28300
H336        H  0.79989727  0.82800644  0.26712536     0.41200
H337        H  0.80430642  0.72572457  0.26462292     0.31300
H338        H  0.77022280  0.74802180  0.31924172     0.38900
H339        H  0.69359046  0.81458259  0.18234472     0.30700
H340        H  0.78594565  0.71542090  0.22057702     0.30800
H341        H  0.67335875  0.71990896  0.24014100     0.31100
N342        N  0.18918023  0.18404184  0.00725500    -0.03400
C343        C  0.20719933  0.18270611  0.02318928    -0.00900
C344        C  0.22841147  0.17839945  0.01227100    -0.23700
C345        C  0.22388261  0.17777127  0.98897329    -0.23900
C346        C  0.20003938  0.18179416  0.98607226    -0.01000
H347        H  0.24579276  0.17819852  0.02010464     0.12800
H348        H  0.23712024  0.17723581  0.97535583     0.12900
Zr349      Zr  0.20346238  0.26016360  0.78342238     2.17500
O350        O  0.17351424  0.27635248  0.80880349    -0.51300
O351        O  0.19911865  0.21962761  0.79292061    -0.74500
O352        O  0.16463171  0.25060452  0.76982622    -0.81300
O353        O  0.25177223  0.26588204  0.82889584    -0.83000
O354        O  0.16468691  0.25299108  0.73008729    -0.78700
O355        O  0.21280052  0.25702072  0.82415296    -0.90300
O356        O  0.22911346  0.20176627  0.77425186    -0.76300
O357        O  0.20969939  0.24197461  0.74712615    -0.85700
O358        O  0.24303770  0.24679612  0.78466894    -0.85400
O359        O  0.19558077  0.28881755  0.75415445    -0.72200
O360        O  0.22758935  0.29335848  0.78959088    -0.84300
Zr361      Zr  0.26739429  0.28955092  0.72497263     2.26400
Zr362      Zr  0.20292773  0.27060669  0.71759516     2.06300
Zr363      Zr  0.26747266  0.27966081  0.79063565     2.10000
Zr364      Zr  0.24922266  0.22872046  0.74842639     1.78800
O365        O  0.27583349  0.30757505  0.82075926    -0.93100
O366        O  0.23183384  0.19979463  0.72339421    -0.40900
O367        O  0.27488064  0.26095593  0.75429730    -0.77600
O368        O  0.24292434  0.25665069  0.71798678    -0.96300
O369        O  0.22793497  0.30307493  0.72325300    -0.89600
O370        O  0.26050571  0.30823496  0.76101876    -0.92400
C371        C  0.21147211  0.20193553  0.78827688     1.01300
C372        C  0.23150165  0.25864059  0.83650504     1.14300
C373        C  0.15473671  0.24819763  0.74996178     1.05100
O374        O  0.19381728  0.24197805  0.68844891    -0.94600
O375        O  0.21826924  0.28730922  0.68035331    -0.90300
O376        O  0.25770481  0.29427027  0.68444701    -0.83500
C377        C  0.23862849  0.29412353  0.67255984     1.11700
O378        O  0.19322758  0.33586105  0.78770322    -0.96500
Zr379      Zr  0.22096041  0.32127965  0.75912741     1.88900
O380        O  0.27169120  0.32972880  0.71524021    -0.73200
O381        O  0.17252337  0.29663990  0.70330248    -0.52400
O382        O  0.18755708  0.33862612  0.73893851    -0.97100
O383        O  0.23565345  0.35234729  0.78319193    -0.54300
O384        O  0.23984866  0.34724014  0.73103071    -0.73700
C385        C  0.25844322  0.34711394  0.71818771     0.98600
O386        O  0.29863519  0.27458865  0.70027364    -0.62500
O387        O  0.29806314  0.25319666  0.80350841    -0.57300
O388        O  0.30608395  0.29968249  0.73888612    -0.94000
O389        O  0.30527216  0.29809471  0.77865543    -0.92400
O390        O  0.28087519  0.20774919  0.76788444    -0.92800
O391        O  0.27880118  0.21442018  0.72155082    -0.91600
C392        C  0.31532590  0.30303306  0.75892424     1.17500
H393        H  0.24539518  0.23581910  0.79721094     0.33400
H394        H  0.24678489  0.25017889  0.70305550     0.44300
H395        H  0.27081348  0.32130918  0.76286100     0.37800
H396        H  0.17931077  0.29354435  0.75511946     0.34300
H397        H  0.21464553  0.20057323  0.72638920     0.26100
H398        H  0.16390697  0.28783420  0.69135142     0.32000
H399        H  0.19061633  0.35531049  0.73953345     0.37900
H400        H  0.27504857  0.20457915  0.78391361     0.32400
H401        H  0.30604592  0.26108776  0.81650581     0.31300
H402        H  0.29313942  0.30996968  0.82035144     0.32900
H403        H  0.24541216  0.36215771  0.77271980     0.31900
H404        H  0.29181998  0.22576611  0.72214478     0.35900
H405        H  0.30799366  0.26443519  0.71067355     0.28600
H406        H  0.16371327  0.26317646  0.81411040     0.32900
H407        H  0.17861432  0.32679766  0.78542136     0.35700
H408        H  0.28940502  0.24033577  0.81112018     0.28300
H409        H  0.29064533  0.26397539  0.68948585     0.41200
H410        H  0.20858804  0.24026496  0.67942761     0.31300
H411        H  0.23371951  0.20600376  0.70731543     0.38900
H412        H  0.24713888  0.34498876  0.79391512     0.30700
H413        H  0.16116664  0.29800727  0.71633281     0.30800
H414        H  0.16308151  0.28538715  0.79834043     0.31100
Zr415      Zr  0.19932198  0.79131668  0.78120161     2.17500
O416        O  0.17141490  0.77406584  0.80878097    -0.51300
O417        O  0.19373490  0.83137378  0.78906147    -0.74500
O418        O  0.21186965  0.79882340  0.82025239    -0.81300
O419        O  0.15642410  0.79285799  0.73120784    -0.83000
O420        O  0.25203434  0.79852175  0.82076455    -0.78700
O421        O  0.15880960  0.79766007  0.77053105    -0.90300
O422        O  0.21519667  0.85159294  0.76214619    -0.76300
O423        O  0.23681496  0.80937726  0.77728562    -0.85700
O424        O  0.20050557  0.80743037  0.74273690    -0.85400
O425        O  0.22770268  0.76204987  0.78941346    -0.72200
O426        O  0.19254452  0.75963811  0.75607018    -0.84300
Zr427      Zr  0.26066060  0.76404214  0.72014410     2.26400
Zr428      Zr  0.26551926  0.78031729  0.78424301     2.06300
Zr429      Zr  0.19423911  0.77584139  0.71734429     2.10000
Zr430      Zr  0.23801582  0.82496841  0.73890239     1.78800
O431        O  0.16416702  0.74678621  0.71061153    -0.93100
O432        O  0.26720967  0.85054274  0.75592310    -0.40900
O433        O  0.23234802  0.79379105  0.71253071    -0.77600
O434        O  0.26735672  0.79601078  0.74523907    -0.96300
O435        O  0.25974707  0.74868295  0.75884958    -0.89600
O436        O  0.22282778  0.74638212  0.72446857    -0.92400
C437        C  0.20105792  0.85011566  0.77965610     1.01300
C438        C  0.14766164  0.79883898  0.75112161     1.14300
C439        C  0.23170893  0.80259897  0.83012792     1.05100
O440        O  0.29568895  0.80889176  0.79257941    -0.94600
O441        O  0.30343598  0.76421611  0.77065080    -0.90300
O442        O  0.30148398  0.75926683  0.73131730    -0.83500
C443        C  0.31257190  0.75870963  0.75082313     1.11700
O444        O  0.19152922  0.71531649  0.78858289    -0.96500
Zr445      Zr  0.22214487  0.73107916  0.76306845     1.88900
O446        O  0.26895475  0.72340701  0.71535358    -0.73200
O447        O  0.27819342  0.75544912  0.81632420    -0.52400
O448        O  0.23751043  0.71049799  0.79706164    -0.97100
O449        O  0.19780523  0.70209198  0.74439049    -0.54300
O450        O  0.25018895  0.70518661  0.74544854    -0.73700
C451        C  0.26422639  0.70549820  0.72783929     0.98600
O452        O  0.28770815  0.78119525  0.69160729    -0.62500
O453        O  0.17995042  0.79865164  0.68431097    -0.57300
O454        O  0.24783439  0.75668294  0.68090661    -0.94000
O455        O  0.20778010  0.75992889  0.67968583    -0.92400
O456        O  0.21684456  0.84897302  0.71087672    -0.92800
O457        O  0.26429848  0.84129051  0.70930636    -0.91600
C458        C  0.22794576  0.75501068  0.67042691     1.17500
H459        H  0.18881721  0.81921821  0.74047315     0.33400
H460        H  0.28283698  0.80247701  0.74235951     0.44300
H461        H  0.22087726  0.73400815  0.71364650     0.37800
H462        H  0.22600056  0.75654382  0.80530796     0.34300
H463        H  0.26226987  0.86609327  0.75089723     0.26100
H464        H  0.27944610  0.74010609  0.80933747     0.32000
H465        H  0.24048328  0.69479047  0.79156355     0.37900
H466        H  0.21620045  0.83985489  0.69647187     0.32400
H467        H  0.16940134  0.81024439  0.69109837     0.31300
H468        H  0.15798742  0.75048722  0.69483755     0.32900
H469        H  0.20688318  0.69714187  0.73061258     0.31900
H470        H  0.26584568  0.82915685  0.69754849     0.35900
H471        H  0.27761160  0.79028764  0.68087566     0.28600
H472        H  0.16564529  0.78693735  0.81823472     0.32900
H473        H  0.17981540  0.72773729  0.78995150     0.35700
H474        H  0.19389848  0.80749978  0.67885626     0.28300
H475        H  0.29667034  0.79287613  0.70034029     0.41200
H476        H  0.30613712  0.80138237  0.80420902     0.31300
H477        H  0.26394870  0.84995382  0.77290740     0.38900
H478        H  0.18432120  0.71070810  0.73774534     0.30700
H479        H  0.29473170  0.76007554  0.81938469     0.30800
H480        H  0.18113638  0.76477816  0.81968672     0.31100
Zr481      Zr  0.76015882  0.26495673  0.78578129     2.17500
O482        O  0.79002311  0.27923608  0.81262977    -0.51300
O483        O  0.76619650  0.22379178  0.78970527    -0.74500
O484        O  0.74920642  0.25687081  0.82529682    -0.81300
O485        O  0.80127331  0.26377568  0.73470416    -0.83000
O486        O  0.70964039  0.26268494  0.82884579    -0.78700
O487        O  0.80019711  0.25850954  0.77418208    -0.90300
O488        O  0.73909742  0.20603427  0.76694810    -0.76300
O489        O  0.72124093  0.24963075  0.78416676    -0.85700
O490        O  0.75598121  0.25026432  0.74755952    -0.85400
O491        O  0.73436130  0.29608543  0.79485156    -0.72200
O492        O  0.76765607  0.29722562  0.76047690    -0.84300
Zr493      Zr  0.69805781  0.29789846  0.72766874     2.26400
Zr494      Zr  0.69504120  0.28055822  0.79200234     2.06300
Zr495      Zr  0.76342072  0.28216268  0.72197299     2.10000
Zr496      Zr  0.71702414  0.23530828  0.74589272     1.78800
O497        O  0.79479225  0.30933181  0.71227804    -0.93100
O498        O  0.68761769  0.21106427  0.76535371    -0.40900
O499        O  0.72404969  0.26677382  0.71924325    -0.77600
O500        O  0.69017170  0.26588321  0.75338100    -0.96300
O501        O  0.70158014  0.31245769  0.76600148    -0.89600
O502        O  0.73708187  0.31326489  0.72978016    -0.92400
C503        C  0.75645846  0.20576362  0.78135482     1.01300
C504        C  0.81059166  0.25739673  0.75445035     1.14300
C505        C  0.72994591  0.25621443  0.83682159     1.05100
O506        O  0.66485786  0.25287314  0.80382989    -0.94600
O507        O  0.65687388  0.29729190  0.77915251    -0.90300
O508        O  0.65778371  0.30265660  0.73967644    -0.83500
C509        C  0.64728526  0.30307570  0.75942874     1.11700
O510        O  0.76899641  0.34246159  0.79586471    -0.96500
Zr511      Zr  0.74036870  0.32768406  0.76813141     1.88900
O512        O  0.68986260  0.33889651  0.72498364    -0.73200
O513        O  0.68311253  0.30676029  0.82245057    -0.52400
O514        O  0.72254887  0.34851146  0.80007443    -0.97100
O515        O  0.77015542  0.35383980  0.75220880    -0.54300
O516        O  0.71719695  0.35680585  0.74738820    -0.73700
C517        C  0.69939474  0.35698363  0.73345569     0.98600
O518        O  0.67017966  0.28303892  0.69907998    -0.62500
O519        O  0.77370980  0.25704019  0.69005671    -0.57300
O520        O  0.70971621  0.30582318  0.68806293    -0.94000
O521        O  0.74910769  0.29876343  0.68441779    -0.92400
O522        O  0.73383971  0.20989115  0.71708553    -0.92800
O523        O  0.68821134  0.22350760  0.71681882    -0.91600
C524        C  0.72892957  0.30555763  0.67635271     1.17500
H525        H  0.76695493  0.23804572  0.74465517     0.33400
H526        H  0.67418174  0.26049081  0.75127995     0.44300
H527        H  0.73933005  0.32568689  0.71866089     0.37800
H528        H  0.73728343  0.30108137  0.81059128     0.34300
H529        H  0.68848650  0.21527701  0.78200571     0.26100
H530        H  0.67876367  0.29680016  0.83593845     0.32000
H531        H  0.70603173  0.35116714  0.79513368     0.37900
H532        H  0.73935644  0.22022781  0.70433168     0.32400
H533        H  0.78880959  0.26329623  0.68394427     0.31300
H534        H  0.80295265  0.31204571  0.72727618     0.32900
H535        H  0.76372337  0.36933589  0.75474144     0.31900
H536        H  0.69186878  0.23299937  0.70279608     0.35900
H537        H  0.67965557  0.27318648  0.68879592     0.28600
H538        H  0.79489795  0.26576425  0.82213840     0.32900
H539        H  0.77453941  0.32879455  0.80465222     0.35700
H540        H  0.77806061  0.24236385  0.69775074     0.28300
H541        H  0.66009494  0.27204421  0.70791595     0.41200
H542        H  0.65151929  0.26219689  0.80941928     0.31300
H543        H  0.67215045  0.21697419  0.76003916     0.38900
H544        H  0.76946631  0.35187122  0.73509457     0.30700
H545        H  0.69786366  0.31449241  0.82729330     0.30800
H546        H  0.78143414  0.28910850  0.82362262     0.31100
Zr547      Zr  0.75120661  0.80965406  0.78699782     2.17500
O548        O  0.73391238  0.83564675  0.81509081    -0.51300
O549        O  0.79251889  0.81966090  0.79162217    -0.74500
O550        O  0.75914481  0.79642462  0.82597182    -0.81300
O551        O  0.75518164  0.85169010  0.73650883    -0.83000
O552        O  0.75435035  0.75767529  0.82785580    -0.78700
O553        O  0.75631626  0.84921030  0.77620851    -0.90300
O554        O  0.81352500  0.79430970  0.77040457    -0.76300
O555        O  0.76792436  0.77239762  0.78535475    -0.85700
O556        O  0.76935220  0.80784923  0.74970529    -0.85400
O557        O  0.71899276  0.78347829  0.79359760    -0.72200
O558        O  0.72017802  0.81746721  0.75968294    -0.84300
Zr559      Zr  0.72278238  0.75112258  0.72587051     2.26400
Zr560      Zr  0.73582342  0.74584674  0.79061054     2.06300
Zr561      Zr  0.73861870  0.81480240  0.72211118     2.10000
Zr562      Zr  0.78585386  0.77083961  0.74799393     1.78800
O563        O  0.71177178  0.84518784  0.71014278    -0.93100
O564        O  0.81321682  0.74366152  0.76576052    -0.40900
O565        O  0.75522522  0.77708755  0.71962654    -0.77600
O566        O  0.75421630  0.74344733  0.75297620    -0.96300
O567        O  0.70487390  0.75312908  0.76321938    -0.89600
O568        O  0.70641267  0.78847676  0.72780743    -0.92400
C569        C  0.81200655  0.81162049  0.78395109     1.01300
C570        C  0.75910382  0.86023389  0.75691298     1.14300
C571        C  0.76022262  0.77712736  0.83673886     1.05100
O572        O  0.76188401  0.71361154  0.79837808    -0.94600
O573        O  0.71531757  0.71049647  0.77715561    -0.90300
O574        O  0.71531022  0.71202062  0.73745218    -0.83500
C575        C  0.71123170  0.70169330  0.75691011     1.11700
O576        O  0.67464414  0.81944309  0.79184313    -0.96500
Zr577      Zr  0.68858337  0.79038398  0.76516846     1.88900
O578        O  0.68079121  0.74360908  0.72006165    -0.73200
O579        O  0.70918270  0.73469575  0.82226592    -0.52400
O580        O  0.66228462  0.77316011  0.79425816    -0.97100
O581        O  0.66218553  0.81716739  0.74524789    -0.54300
O582        O  0.66038743  0.76768825  0.74327793    -0.73700
C583        C  0.66146280  0.75166814  0.72823497     0.98600
O584        O  0.73920808  0.72450468  0.69783096    -0.62500
O585        O  0.76798102  0.82488752  0.69261203    -0.57300
O586        O  0.71772388  0.76369942  0.68605843    -0.94000
O587        O  0.72365714  0.80229867  0.68369870    -0.92400
O588        O  0.80920013  0.78958424  0.71741339    -0.92800
O589        O  0.80246823  0.74340356  0.72106168    -0.91600
C590        C  0.71787573  0.78282099  0.67482718     1.17500
H591        H  0.78170422  0.81914268  0.74761729     0.33400
H592        H  0.76015834  0.72816039  0.75076332     0.44300
H593        H  0.69447938  0.79066723  0.71598368     0.37800
H594        H  0.71277409  0.78555159  0.80911534     0.34300
H595        H  0.82909214  0.74978773  0.76184648     0.26100
H596        H  0.71758079  0.72231517  0.83079366     0.32000
H597        H  0.67152519  0.77267652  0.80891895     0.37900
H598        H  0.81836823  0.80165864  0.72534736     0.32400
H599        H  0.76111486  0.83812898  0.68406931     0.31300
H600        H  0.70713378  0.85256920  0.72488291     0.32900
H601        H  0.64615150  0.81248018  0.75036549     0.31900
H602        H  0.78876990  0.73437301  0.71560144     0.35900
H603        H  0.75089383  0.73360663  0.68871720     0.28600
H604        H  0.74713577  0.84031188  0.82530664     0.32900
H605        H  0.68111162  0.83407036  0.78555360     0.35700
H606        H  0.78135429  0.83142968  0.70146433     0.28300
H607        H  0.74896889  0.71376437  0.70719387     0.41200
H608        H  0.77785277  0.72050426  0.79922318     0.31300
H609        H  0.81165443  0.74598122  0.78276988     0.38900
H610        H  0.66274411  0.81317227  0.72853319     0.30700
H611        H  0.70924736  0.74772810  0.83310727     0.30800
H612        H  0.72363881  0.82594443  0.82519041     0.31100
N613        N  0.48350287  0.68204885  0.71267513    -0.03400
C614        C  0.50565033  0.67946959  0.72157019    -0.00900
C615        C  0.50475883  0.67646424  0.74550827    -0.23700
C616        C  0.48158258  0.67811151  0.75188257    -0.23900
C617        C  0.46886847  0.68202793  0.73160778    -0.01000
H618        H  0.51964557  0.67617559  0.75735756     0.12800
H619        H  0.47515437  0.67892350  0.76963790     0.12900
N620        N  0.29435218  0.52646010  0.68653923    -0.03400
C621        C  0.28060713  0.50796965  0.69175287    -0.00900
C622        C  0.26522973  0.51283092  0.70967207    -0.23700
C623        C  0.26958251  0.53502909  0.71577311    -0.23900
C624        C  0.28747463  0.54310663  0.70135468    -0.01000
H625        H  0.25266215  0.50122070  0.71786950     0.12800
H626        H  0.26048607  0.54440737  0.72917720     0.12900
N627        N  0.48094171  0.38747075  0.71461836    -0.03400
C628        C  0.49804783  0.38894902  0.73146073    -0.00900
C629        C  0.48856645  0.39673343  0.75208381    -0.23700
C630        C  0.46498768  0.39917097  0.74854707    -0.23900
C631        C  0.46033312  0.39232632  0.72601478    -0.01000
H632        H  0.49724306  0.39788144  0.76885418     0.12800
H633        H  0.45218198  0.40190577  0.76224653     0.12900
N634        N  0.63406729  0.53421315  0.71346210    -0.03400
C635        C  0.63489683  0.51393170  0.72589203    -0.00900
C636        C  0.63533639  0.51780598  0.74956529    -0.23700
C637        C  0.63514777  0.54091802  0.75231125    -0.23900
C638        C  0.63463046  0.55080083  0.73022815    -0.01000
H639        H  0.63768022  0.50512471  0.76335114     0.12800
H640        H  0.63731220  0.54964834  0.76871264     0.12900
N641        N  0.47856138  0.39042758  0.29700055    -0.03400
C642        C  0.50045224  0.39207171  0.28720393    -0.00900
C643        C  0.49886638  0.39792825  0.26386723    -0.23700
C644        C  0.47548671  0.39848462  0.25844156    -0.23900
C645        C  0.46313791  0.39323879  0.27875926    -0.01000
H646        H  0.51316077  0.39813358  0.25130902     0.12800
H647        H  0.46876762  0.39974933  0.24082005     0.12900
N648        N  0.67877327  0.52855338  0.33589327    -0.03400
C649        C  0.68674725  0.50706903  0.33147418    -0.00900
C650        C  0.71014948  0.50758097  0.32490649    -0.23700
C651        C  0.71713004  0.52997738  0.32514701    -0.23900
C652        C  0.69777162  0.54265665  0.33187604    -0.01000
H653        H  0.72078701  0.49317325  0.31975278     0.12800
H654        H  0.73424121  0.53645098  0.31971534     0.12900
N655        N  0.48060372  0.75201761  0.36847160    -0.03400
C656        C  0.50144764  0.76296903  0.37292117    -0.00900
C657        C  0.49742075  0.78463179  0.38129920    -0.23700
C658        C  0.47372469  0.78816936  0.38017743    -0.23900
C659        C  0.46372169  0.76843435  0.37135938    -0.01000
H660        H  0.51052023  0.79784214  0.38423978     0.12800
H661        H  0.46538521  0.80459206  0.38246656     0.12900
N662        N  0.28391691  0.53720223  0.33409913    -0.03400
C663        C  0.27478174  0.51644837  0.32810880    -0.00900
C664        C  0.25154696  0.51839234  0.32125753    -0.23700
C665        C  0.24581862  0.54093162  0.32295347    -0.23900
C666        C  0.26576875  0.55224458  0.33072264    -0.01000
H667        H  0.24024662  0.50487247  0.31484466     0.12800
H668        H  0.22929779  0.54854493  0.31748559     0.12900
N669        N  0.63774311  0.73780990  0.50810572    -0.03400
C670        C  0.63699859  0.74705719  0.48609283    -0.00900
C671        C  0.63600729  0.77060296  0.48677275    -0.23700
C672        C  0.63664443  0.77638699  0.50976853    -0.23900
C673        C  0.63807051  0.75617509  0.52265370    -0.01000
H674        H  0.63712000  0.78239083  0.47203410     0.12800
H675        H  0.63833224  0.79364402  0.51619138     0.12900
N676        N  0.68778824  0.38145614  0.50530277    -0.03400
C677        C  0.70141085  0.38003226  0.48562202    -0.00900
C678        C  0.72500905  0.37818671  0.49139448    -0.23700
C679        C  0.72639316  0.37802770  0.51506932    -0.23900
C680        C  0.70361051  0.37976681  0.52329876    -0.01000
H681        H  0.73954894  0.37520760  0.47957574     0.12800
H682        H  0.74220320  0.37509688  0.52527442     0.12900
N683        N  0.26665264  0.67848967  0.50166085    -0.03400
C684        C  0.25628407  0.67870061  0.48007462    -0.00900
C685        C  0.23204489  0.67764897  0.48217009    -0.23700
C686        C  0.22699227  0.67746859  0.50548043    -0.23900
C687        C  0.24830759  0.67845613  0.51720476    -0.01000
H688        H  0.21930922  0.67962866  0.46820381     0.12800
H689        H  0.20952595  0.67908513  0.51290684     0.12900
N690        N  0.27826993  0.37333027  0.50295910    -0.03400
C691        C  0.26083359  0.37372165  0.48633305    -0.00900
C692        C  0.23877008  0.37469706  0.49640993    -0.23700
C693        C  0.24211470  0.37425508  0.51987396    -0.23900
C694        C  0.26616306  0.37305761  0.52365604    -0.01000
H695        H  0.22190188  0.37359914  0.48760590     0.12800
H696        H  0.22831203  0.37272533  0.53289244     0.12900
O697        O  0.91772891  0.99034518  0.99879147    -0.86500
O698        O  0.05130978  0.00084154  0.00405663    -0.86600
O699        O  0.98826919  0.97117246  0.96175586    -0.88300
O700        O  0.98402827  0.96387118  0.03759839    -0.87100
O701        O  0.98140577  0.98848055  0.06847401    -0.86600
O702        O  0.98857530  0.00183876  0.93616546    -0.88000
O703        O  0.02550161  0.97049857  0.00204570    -0.86500
O704        O  0.94871708  0.96536272  0.99625950    -0.86100
Zr705      Zr  0.98538480  0.98650268  0.00150189     2.84300
O706        O  0.00597321  0.00908231  0.02830643    -1.08100
O707        O  0.96096957  0.01031264  0.97891960    -1.08800
C708        C  0.92646500  0.97003708  0.99618915     1.06600
C709        C  0.04655534  0.97926877  0.00234056     1.06600
C710        C  0.98947817  0.98011849  0.94092230     1.09600
C711        C  0.98269406  0.96819732  0.05960114     1.07400
H712        H  0.01927703  0.00548436  0.97123193     0.32900
O713        O  0.00831477  0.01342790  0.98108795    -1.29000
H714        H  0.94901579  0.99451443  0.03446895     0.32600
O715        O  0.95870857  0.00554808  0.02610345    -1.30700
O716        O  0.04639816  0.07364710  0.01278253    -0.86500
O717        O  0.91221580  0.06504840  0.00545007    -0.88000
O718        O  0.02403674  0.03893577  0.94119049    -0.86500
O719        O  0.01764266  0.02751215  0.07374397    -0.86600
O720        O  0.94000206  0.02584714  0.07054478    -0.86300
O721        O  0.94652047  0.03353987  0.93770899    -0.86100
O722        O  0.97854205  0.10154498  0.97076808    -0.86500
O723        O  0.97669390  0.09470544  0.04907511    -0.85900
O724        O  0.98315274  0.07558664  0.94129695    -0.87000
O725        O  0.97602531  0.06393992  0.07471036    -0.86200
O726        O  0.05077019  0.03982922  0.97120454    -0.86600
O727        O  0.91630870  0.03066431  0.96437953    -0.86300
O728        O  0.91328649  0.02519853  0.04044257    -0.85900
O729        O  0.04643118  0.03026668  0.04562617    -0.86300
O730        O  0.01718561  0.10077527  0.01139958    -0.86600
O731        O  0.93774834  0.09538157  0.00984050    -0.88000
Zr732      Zr  0.02872577  0.03604725  0.00758666     2.83100
Zr733      Zr  0.93439375  0.02928493  0.00319012     2.83500
Zr734      Zr  0.98418488  0.03708568  0.95831407     2.84100
Zr735      Zr  0.97961666  0.02822934  0.05283332     2.83400
Zr736      Zr  0.97861449  0.07996366  0.00876127     2.84200
O737        O  0.95591372  0.05204058  0.02915232    -1.08500
O738        O  0.00499550  0.06016509  0.98458194    -1.08000
C739        C  0.03917546  0.09456372  0.01321354     1.06600
C740        C  0.91665256  0.08665151  0.00797729     1.09200
C741        C  0.04539049  0.03955327  0.94929683     1.06800
C742        C  0.03946200  0.02775515  0.06693174     1.07200
C743        C  0.91866276  0.02489629  0.06242385     1.06700
C744        C  0.92445736  0.03146762  0.94329066     1.06300
C745        C  0.98081273  0.09615625  0.94890100     1.06700
C746        C  0.97562274  0.08572399  0.06997203     1.06200
H747        H  0.94742914  0.06593637  0.97299758     0.32900
O748        O  0.95761707  0.05648408  0.98257551    -1.29600
H749        H  0.01151446  0.06443161  0.04284007     0.32900
O750        O  0.00252124  0.05548181  0.03190540    -1.31000
O751        O  0.47504403  0.59786658  0.54802012    -0.86500
O752        O  0.48402961  0.46769117  0.54172114    -0.86600
O753        O  0.44133357  0.53083034  0.57123393    -0.88300
O754        O  0.51873183  0.53438834  0.57213580    -0.87100
O755        O  0.54798772  0.53669292  0.54440406    -0.86600
O756        O  0.41311250  0.53022842  0.54254523    -0.88000
O757        O  0.48342346  0.49458825  0.57060530    -0.86500
O758        O  0.47569502  0.56786649  0.57439053    -0.86100
Zr759      Zr  0.48008509  0.53237770  0.55265416     2.84300
O760        O  0.50502584  0.51217861  0.52785500    -1.08100
O761        O  0.45482352  0.55505299  0.52999645    -1.08800
C762        C  0.47444361  0.58943584  0.56907370     1.06600
C763        C  0.48453519  0.47377216  0.56349357     1.06600
C764        C  0.41965749  0.53047187  0.56418092     1.09600
C765        C  0.54067406  0.53564683  0.56583025     1.07400
H766        H  0.44801587  0.49846247  0.53713734     0.32900
O767        O  0.45748704  0.50897518  0.52786597    -1.29000
H768        H  0.51178506  0.56812707  0.54131854     0.32600
O769        O  0.50268562  0.55868104  0.53091613    -1.30700
O770        O  0.48273544  0.47303036  0.46326824    -0.86500
O771        O  0.47596245  0.60368139  0.47224848    -0.88000
O772        O  0.41517541  0.49418330  0.50159761    -0.86500
O773        O  0.54911611  0.50207814  0.50684371    -0.86600
O774        O  0.54489559  0.57756318  0.50733442    -0.86300
O775        O  0.41025104  0.56712749  0.50925014    -0.86100
O776        O  0.44252255  0.53924148  0.43783121    -0.86500
O777        O  0.52048841  0.53917951  0.43902746    -0.85900
O778        O  0.41389589  0.53598526  0.46612018    -0.87000
O779        O  0.54820741  0.53965896  0.46823412    -0.86200
O780        O  0.44447197  0.46717104  0.50267837    -0.86600
O781        O  0.43655607  0.59718684  0.51000187    -0.86300
O782        O  0.51427521  0.60297130  0.51055710    -0.85900
O783        O  0.52277310  0.47224263  0.50315442    -0.86300
O784        O  0.47985109  0.50329032  0.43716176    -0.86600
O785        O  0.48076788  0.57924891  0.44155219    -0.88000
Zr786      Zr  0.48266210  0.48843600  0.50329595     2.83100
Zr787      Zr  0.47704816  0.58172912  0.50865661     2.83500
Zr788      Zr  0.43287858  0.53224638  0.50461223     2.84100
Zr789      Zr  0.52801706  0.53850114  0.50617624     2.83400
Zr790      Zr  0.48112188  0.53943335  0.45797293     2.84200
O791        O  0.50297347  0.56214368  0.48377451    -1.08500
O792        O  0.45867959  0.51267652  0.48019327    -1.08000
C793        C  0.48082430  0.48166932  0.44231178     1.06600
C794        C  0.47799283  0.59951413  0.45026737     1.09200
C795        C  0.42244264  0.47323971  0.50158229     1.06800
C796        C  0.54393861  0.48054530  0.50529521     1.07200
C797        C  0.53649090  0.59805247  0.50950791     1.06700
C798        C  0.41537055  0.58862544  0.51049750     1.06300
C799        C  0.42066176  0.53821715  0.44457490     1.06700
C800        C  0.54217650  0.53928115  0.44641909     1.06200
H801        H  0.44497714  0.56865137  0.47375392     0.32900
O802        O  0.45532827  0.55894092  0.48286538    -1.29600
H803        H  0.51565433  0.50693813  0.47130043     0.32900
O804        O  0.50526232  0.51541652  0.48130418    -1.31000
C805        C  0.38003974  0.40291570  0.53076230    -0.17800
C806        C  0.35978591  0.38884781  0.53085543    -0.20000
C807        C  0.34130353  0.39277258  0.51489963     0.20700
C808        C  0.34351116  0.41101231  0.49858014    -0.02900
C809        C  0.36384158  0.42539965  0.49865862    -0.06000
C810        C  0.38227263  0.42136760  0.51480645     0.21000
C811        C  0.36542023  0.44415501  0.48290011     0.19100
C812        C  0.34706283  0.44809380  0.46690755    -0.17400
C813        C  0.32718969  0.43376096  0.46665099    -0.19700
C814        C  0.32513442  0.41529157  0.48252100     0.20600
C815        C  0.30458870  0.40166639  0.48310510    -0.32700
C816        C  0.30153843  0.38388000  0.49986270     0.01300
C817        C  0.32040471  0.37931294  0.51543032    -0.24000
C818        C  0.40220556  0.43619265  0.51504291    -0.28600
C819        C  0.40351183  0.45536815  0.49973752     0.07000
C820        C  0.38501832  0.45899945  0.48369089    -0.27300
H821        H  0.39384373  0.39952799  0.54341799     0.11700
H822        H  0.35848256  0.37500280  0.54361002     0.12800
H823        H  0.34797407  0.46242462  0.45468846     0.11900
H824        H  0.31320735  0.43737077  0.45424724     0.11200
H825        H  0.29030906  0.40590140  0.47127365     0.16500
H826        H  0.31869763  0.36568789  0.52830909     0.12500
H827        H  0.41612010  0.43342028  0.52774283     0.15300
H828        H  0.38578224  0.47370770  0.47190976     0.15100
C829        C  0.37011798  0.65411857  0.47887693    -0.17800
C830        C  0.34931667  0.66694296  0.47773926    -0.20000
C831        C  0.33071833  0.66254208  0.49342336     0.20700
C832        C  0.33329745  0.64519925  0.51065135    -0.02900
C833        C  0.35424416  0.63204266  0.51165573    -0.06000
C834        C  0.37271530  0.63652689  0.49563221     0.21000
C835        C  0.35643307  0.61403758  0.52824643     0.19100
C836        C  0.33803919  0.60994493  0.54425954    -0.17400
C837        C  0.31743324  0.62314180  0.54342270    -0.19700
C838        C  0.31471516  0.64057301  0.52643601     0.20600
C839        C  0.29340459  0.65276720  0.52434166    -0.32700
C840        C  0.29014797  0.66950719  0.50650719     0.01300
C841        C  0.30935468  0.67467883  0.49162772    -0.24000
C842        C  0.39318186  0.62298986  0.49621541    -0.28600
C843        C  0.39512207  0.60450792  0.51207157     0.07000
C844        C  0.37670785  0.60016664  0.52812412    -0.27300
H845        H  0.38405817  0.65773647  0.46637845     0.11700
H846        H  0.34765232  0.68013489  0.46434087     0.12800
H847        H  0.33945251  0.59632949  0.55724935     0.11900
H848        H  0.30340005  0.61938773  0.55577803     0.11200
H849        H  0.27886560  0.64822121  0.53580727     0.16500
H850        H  0.30759857  0.68776553  0.47821540     0.12500
H851        H  0.40717200  0.62616353  0.48363299     0.15300
H852        H  0.37812992  0.58588289  0.54036754     0.15100
C853        C  0.58626162  0.41154593  0.47754644    -0.17800
C854        C  0.60645641  0.39769171  0.47742532    -0.20000
C855        C  0.62567108  0.40236300  0.49217360     0.20700
C856        C  0.62434159  0.42124678  0.50721877    -0.02900
C857        C  0.60407649  0.43541285  0.50713588    -0.06000
C858        C  0.58487950  0.43050712  0.49227979     0.21000
C859        C  0.60318344  0.45464153  0.52173417     0.19100
C860        C  0.62226577  0.45932346  0.53655988    -0.17400
C861        C  0.64215337  0.44522059  0.53679577    -0.19700
C862        C  0.64340548  0.42621697  0.52213705     0.20600
C863        C  0.66362159  0.41242494  0.52187654    -0.32700
C864        C  0.66550491  0.39367137  0.50674080     0.01300
C865        C  0.64627327  0.38875418  0.49193156    -0.24000
C866        C  0.56486497  0.44482635  0.49220061    -0.28600
C867        C  0.56413710  0.46435435  0.50632422     0.07000
C868        C  0.58339012  0.46902765  0.52107748    -0.27300
H869        H  0.57177745  0.40752827  0.46593504     0.11700
H870        H  0.60706577  0.38333106  0.46570728     0.12800
H871        H  0.62185983  0.47397633  0.54792283     0.11900
H872        H  0.65668025  0.44930622  0.54833257     0.11200
H873        H  0.67839372  0.41687465  0.53294662     0.16500
H874        H  0.64732487  0.37448288  0.48019594     0.12500
H875        H  0.55019911  0.44120335  0.48065629     0.15300
H876        H  0.58291716  0.48391543  0.53214561     0.15100
C877        C  0.57205923  0.69339374  0.54151793    -0.17800
C878        C  0.55712894  0.67422849  0.54063836    -0.20000
C879        C  0.56295777  0.65543956  0.52681305     0.20700
C880        C  0.58436322  0.65573331  0.51421619    -0.02900
C881        C  0.59943626  0.67517593  0.51504891    -0.06000
C882        C  0.59309716  0.69418677  0.52854870     0.21000
C883        C  0.62044258  0.67587246  0.50181259     0.19100
C884        C  0.62649828  0.65685117  0.48838746    -0.17400
C885        C  0.61168856  0.63753590  0.48771133    -0.19700
C886        C  0.59045922  0.63684117  0.50039349     0.20600
C887        C  0.57508104  0.61778918  0.49924404    -0.32700
C888        C  0.55341445  0.61760199  0.51134953     0.01300
C889        C  0.54759999  0.63653568  0.52514300    -0.24000
C890        C  0.60724322  0.71407691  0.52793733    -0.28600
C891        C  0.62751501  0.71552535  0.51366944     0.07000
C892        C  0.63442987  0.69592425  0.50138709    -0.27300
H893        H  0.56690408  0.70780774  0.55200833     0.11700
H894        H  0.54083990  0.67423212  0.55055813     0.12800
H895        H  0.64253472  0.65705505  0.47807833     0.11900
H896        H  0.61669964  0.62324386  0.47698484     0.11200
H897        H  0.57967055  0.60338530  0.48846898     0.16500
H898        H  0.53108487  0.63650251  0.53471757     0.12500
H899        H  0.60150051  0.72906696  0.53723488     0.15300
H900        H  0.65010684  0.69664392  0.49060910     0.15100
C901        C  0.38696313  0.52046046  0.36620740    -0.17800
C902        C  0.36782531  0.52050535  0.35060354    -0.20000
C903        C  0.34658006  0.53142495  0.35628643     0.20700
C904        C  0.34488667  0.54285064  0.37775185    -0.02900
C905        C  0.36410730  0.54251824  0.39367525    -0.06000
C906        C  0.38523863  0.53116574  0.38795562     0.21000
C907        C  0.36194218  0.55311161  0.41553428     0.19100
C908        C  0.34100287  0.56465372  0.42093245    -0.17400
C909        C  0.32215047  0.56521212  0.40511160    -0.19700
C910        C  0.32375824  0.55409241  0.38362249     0.20600
C911        C  0.30431626  0.55333015  0.36834348    -0.32700
C912        C  0.30535401  0.54103622  0.34740940     0.01300
C913        C  0.32680245  0.53053460  0.34128551    -0.24000
C914        C  0.40400946  0.53034824  0.40424825    -0.28600
C915        C  0.40164415  0.54017705  0.42648889     0.07000
C916        C  0.38053483  0.55166752  0.43179534    -0.27300
H917        H  0.40300583  0.51169124  0.36140704     0.11700
H918        H  0.36955334  0.51172033  0.33417995     0.12800
H919        H  0.33908583  0.57304466  0.43755471     0.11900
H920        H  0.30610265  0.57398490  0.40990118     0.11200
H921        H  0.28786353  0.56125370  0.37335043     0.16500
H922        H  0.32792098  0.52128949  0.32509308     0.12500
H923        H  0.42012010  0.52142675  0.39993554     0.15300
H924        H  0.37858901  0.55956216  0.44868765     0.15100
C925        C  0.51035195  0.65130294  0.38757695    -0.17800
C926        C  0.51049715  0.67270447  0.37598485    -0.20000
C927        C  0.49332199  0.68924716  0.38090713     0.20700
C928        C  0.47574632  0.68398280  0.39762123    -0.02900
C929        C  0.47569311  0.66241674  0.40947241    -0.06000
C930        C  0.49307660  0.64593254  0.40444929     0.21000
C931        C  0.45851843  0.65757806  0.42670755     0.19100
C932        C  0.44135844  0.67404941  0.43169214    -0.17400
C933        C  0.44133219  0.69523651  0.41990135    -0.19700
C934        C  0.45851375  0.70044912  0.40292430     0.20600
C935        C  0.45918393  0.72213582  0.39183890    -0.32700
C936        C  0.47715173  0.72810319  0.37566229     0.01300
C937        C  0.49386660  0.71115297  0.37000125    -0.24000
C938        C  0.49317648  0.62469880  0.41678560    -0.28600
C939        C  0.47640456  0.62005292  0.43446519     0.07000
C940        C  0.45907989  0.63660783  0.43907978    -0.27300
H941        H  0.52395177  0.63902547  0.38350892     0.11700
H942        H  0.52423306  0.67640118  0.36329386     0.12800
H943        H  0.42804542  0.67062384  0.44489759     0.11900
H944        H  0.42801475  0.70769219  0.42430373     0.11200
H945        H  0.44638733  0.73483773  0.39689692     0.16500
H946        H  0.50778340  0.71519642  0.35767258     0.12500
H947        H  0.50684261  0.61227669  0.41337712     0.15300
H948        H  0.44615926  0.63325203  0.45270435     0.15100
C949        C  0.62614078  0.55373332  0.42572534    -0.17800
C950        C  0.64492915  0.55339744  0.40984789    -0.20000
C951        C  0.64172855  0.54479047  0.38732807     0.20700
C952        C  0.61926880  0.53656151  0.38070047    -0.02900
C953        C  0.60012127  0.53724444  0.39668235    -0.06000
C954        C  0.60365675  0.54576281  0.41932488     0.21000
C955        C  0.57755361  0.52925176  0.39009189     0.19100
C956        C  0.57450689  0.52033096  0.36761430    -0.17400
C957        C  0.59354996  0.51928256  0.35194194    -0.19700
C958        C  0.61604632  0.52731844  0.35828995     0.20600
C959        C  0.63549318  0.52572671  0.34295772    -0.32700
C960        C  0.65803908  0.53357754  0.34964336     0.01300
C961        C  0.66078535  0.54359033  0.37165454    -0.24000
C962        C  0.58471932  0.54622131  0.43522060    -0.28600
C963        C  0.56190729  0.53873843  0.42885754     0.07000
C964        C  0.55854438  0.53025079  0.40610268    -0.27300
H965        H  0.62920397  0.56029391  0.44305564     0.11700
H966        H  0.66207432  0.55964547  0.41529838     0.12800
H967        H  0.55739193  0.51399832  0.36218432     0.11900
H968        H  0.59068273  0.51209171  0.33484851     0.11200
H969        H  0.63326737  0.51796189  0.32605100     0.16500
H970        H  0.67816490  0.54926879  0.37704904     0.12500
H971        H  0.58774235  0.55272941  0.45258836     0.15300
H972        H  0.54126182  0.52407386  0.40098225     0.15100
C973        C  0.44407939  0.46131174  0.36723986    -0.17800
C974        C  0.44277787  0.44766562  0.34741405    -0.20000
C975        C  0.45810771  0.42908631  0.34474036     0.20700
C976        C  0.47461898  0.42394790  0.36247205    -0.02900
C977        C  0.47584876  0.43767777  0.38263496    -0.06000
C978        C  0.46064979  0.45657232  0.38485536     0.21000
C979        C  0.49257902  0.43280164  0.40029890     0.19100
C980        C  0.50797714  0.41426693  0.39750687    -0.17400
C981        C  0.50688841  0.40080437  0.37744449    -0.19700
C982        C  0.49033406  0.40553903  0.35975467     0.20600
C983        C  0.48993763  0.39288751  0.33897854    -0.32700
C984        C  0.47445174  0.39873444  0.32049534     0.01300
C985        C  0.45796842  0.41637088  0.32410844    -0.24000
C986        C  0.46245821  0.47059600  0.40447480    -0.28600
C987        C  0.47893359  0.46584926  0.42228362     0.07000
C988        C  0.49380508  0.44673932  0.42020157    -0.27300
H989        H  0.43225043  0.47573500  0.36868965     0.11700
H990        H  0.43004016  0.45191861  0.33394237     0.12800
H991        H  0.52106246  0.41032020  0.41074035     0.11900
H992        H  0.51924164  0.38685137  0.37562378     0.11200
H993        H  0.50249083  0.37920477  0.33678861     0.16500
H994        H  0.44609672  0.42139419  0.31015206     0.12500
H995        H  0.45091536  0.48525318  0.40597737     0.15300
H996        H  0.50673641  0.44315342  0.43369969     0.15100
C997        C  0.60658001  0.50308588  0.61376203    -0.17800
C998        C  0.62004231  0.50326046  0.63439092    -0.20000
C999        C  0.61734423  0.52080661  0.65072667     0.20700
C1000       C  0.60148853  0.53872811  0.64572617    -0.02900
C1001       C  0.58801172  0.53866788  0.62480782    -0.06000
C1002       C  0.59021027  0.52054613  0.60889781     0.21000
C1003       C  0.57174121  0.55638790  0.62024831     0.19100
C1004       C  0.56976908  0.57440851  0.63602675    -0.17400
C1005       C  0.58290651  0.57434267  0.65672394    -0.19700
C1006       C  0.59847104  0.55636052  0.66198154     0.20600
C1007       C  0.61025007  0.55531130  0.68361929    -0.32700
C1008       C  0.62554138  0.53705553  0.68945041     0.01300
C1009       C  0.62956842  0.52032235  0.67225847    -0.24000
C1010       C  0.57549787  0.51993963  0.58889764    -0.28600
C1011       C  0.55843715  0.53710626  0.58494277     0.07000
C1012       C  0.55709579  0.55543120  0.60047583    -0.27300
H1013       H  0.60869374  0.48905918  0.60179901     0.11700
H1014       H  0.63218536  0.48934226  0.63782653     0.12800
H1015       H  0.55757358  0.58829693  0.63265231     0.11900
H1016       H  0.58052131  0.58817225  0.66886976     0.11200
H1017       H  0.60637577  0.56818888  0.69640543     0.16500
H1018       H  0.64173593  0.50654024  0.67560970     0.12500
H1019       H  0.57662815  0.50573397  0.57700216     0.15300
H1020       H  0.54415570  0.56875676  0.59738989     0.15100
C1021       C  0.45106957  0.41059940  0.61277387    -0.17800
C1022       C  0.45057704  0.39850269  0.63417909    -0.20000
C1023       C  0.46846150  0.40159291  0.65088218     0.20700
C1024       C  0.48727166  0.41674689  0.64563546    -0.02900
C1025       C  0.48767260  0.42914697  0.62407447    -0.06000
C1026       C  0.46939913  0.42617895  0.60757568     0.21000
C1027       C  0.50589106  0.44515349  0.61944731     0.19100
C1028       C  0.52391072  0.44810208  0.63597885    -0.17400
C1029       C  0.52364001  0.43568971  0.65711374    -0.19700
C1030       C  0.50524291  0.42018658  0.66227099     0.20600
C1031       C  0.50399881  0.40895347  0.68419476    -0.32700
C1032       C  0.48471847  0.39452166  0.69026786     0.01300
C1033       C  0.46733601  0.39056578  0.67303789    -0.24000
C1034       C  0.46929888  0.43949812  0.58669270    -0.28600
C1035       C  0.48696396  0.45613347  0.58243581     0.07000
C1036       C  0.50530881  0.45857907  0.59883082    -0.27300
H1037       H  0.43681413  0.40809314  0.60045607     0.11700
H1038       H  0.43593429  0.38698853  0.63783351     0.12800
H1039       H  0.53805055  0.46031111  0.63272701     0.11900
H1040       H  0.53758474  0.43861677  0.66967936     0.11200
H1041       H  0.51738682  0.41272306  0.69707678     0.16500
H1042       H  0.45242437  0.37958745  0.67711193     0.12500
H1043       H  0.45481119  0.43788460  0.57445896     0.15300
H1044       H  0.51876863  0.47158003  0.59584254     0.15100
C1045       C  0.33613932  0.51965979  0.58776112    -0.17800
C1046       C  0.31866222  0.51867603  0.60501174    -0.20000
C1047       C  0.32423050  0.52342385  0.62831242     0.20700
C1048       C  0.34764565  0.52925156  0.63431576    -0.02900
C1049       C  0.36535565  0.52993299  0.61694174    -0.06000
C1050       C  0.35954855  0.52513491  0.59355727     0.21000
C1051       C  0.38885197  0.53531412  0.62299468     0.19100
C1052       C  0.39437888  0.54023635  0.64628844    -0.17400
C1053       C  0.37679378  0.53976785  0.66347058    -0.19700
C1054       C  0.35338067  0.53431544  0.65767960     0.20600
C1055       C  0.33560507  0.53378241  0.67479272    -0.32700
C1056       C  0.31235700  0.52779870  0.66888725     0.01300
C1057       C  0.30681311  0.52247524  0.64570997    -0.24000
C1058       C  0.37726234  0.52563819  0.57641437    -0.28600
C1059       C  0.40087625  0.53049203  0.58233475     0.07000
C1060       C  0.40643232  0.53551299  0.60570465    -0.27300
H1061       H  0.33137348  0.51595435  0.56989142     0.11700
H1062       H  0.30076141  0.51423577  0.60011507     0.12800
H1063       H  0.41233027  0.54443437  0.65123153     0.11900
H1064       H  0.38152419  0.54361654  0.68131505     0.11200
H1065       H  0.33981827  0.53759010  0.69277791     0.16500
H1066       H  0.28882475  0.51784799  0.64129266     0.12500
H1067       H  0.37267421  0.52186669  0.55850701     0.15300
H1068       H  0.42445516  0.53963344  0.61048985     0.15100
C1069       C  0.50097361  0.67346899  0.62911056    -0.17800
C1070       C  0.49999302  0.66009755  0.60901124    -0.20000
C1071       C  0.48567020  0.64041108  0.60835286     0.20700
C1072       C  0.47163128  0.63456788  0.62795161    -0.02900
C1073       C  0.47234672  0.64830573  0.64813727    -0.06000
C1074       C  0.48748047  0.66756993  0.64890473     0.21000
C1075       C  0.45862561  0.64223594  0.66785019     0.19100
C1076       C  0.44384337  0.62286744  0.66700845    -0.17400
C1077       C  0.44334770  0.60912889  0.64716938    -0.19700
C1078       C  0.45748347  0.61458998  0.62769492     0.20600
C1079       C  0.45821177  0.60013401  0.60825850    -0.32700
C1080       C  0.47247333  0.60563392  0.58878015     0.01300
C1081       C  0.48568631  0.62612518  0.58875092    -0.24000
C1082       C  0.48968138  0.67993751  0.66974657    -0.28600
C1083       C  0.47702360  0.67328754  0.68994547     0.07000
C1084       C  0.46083428  0.65488963  0.68844688    -0.27300
H1085       H  0.51265249  0.68821466  0.62931787     0.11700
H1086       H  0.51087965  0.66487807  0.59414295     0.12800
H1087       H  0.43310960  0.61798458  0.68195199     0.11900
H1088       H  0.43220234  0.59398754  0.64722369     0.11200
H1089       H  0.44779960  0.58449512  0.60831917     0.16500
H1090       H  0.49678531  0.63041827  0.57387469     0.12500
H1091       H  0.50199105  0.69413932  0.67054103     0.15300
H1092       H  0.45118811  0.64934249  0.70387806     0.15100
C1093       C  0.64680225  0.79962851  0.59487147    -0.17800
C1094       C  0.66002726  0.80525037  0.61464026    -0.20000
C1095       C  0.67885203  0.79138534  0.62195816     0.20700
C1096       C  0.68443464  0.77167803  0.60906721    -0.02900
C1097       C  0.67111244  0.76603906  0.58901862    -0.06000
C1098       C  0.65221128  0.78008845  0.58195532     0.21000
C1099       C  0.67686130  0.74651592  0.57592128     0.19100
C1100       C  0.69572553  0.73266499  0.58325813    -0.17400
C1101       C  0.70864012  0.73800508  0.60334365    -0.19700
C1102       C  0.70311419  0.75744045  0.61636786     0.20600
C1103       C  0.71536239  0.76242716  0.63700829    -0.32700
C1104       C  0.70934565  0.78156121  0.65043954     0.01300
C1105       C  0.69156500  0.79637812  0.64240467    -0.24000
C1106       C  0.63963796  0.77491780  0.56157452    -0.28600
C1107       C  0.64615404  0.75638023  0.54747821     0.07000
C1108       C  0.66430555  0.74176328  0.55524449    -0.27300
H1109       H  0.63241669  0.81069358  0.58957033     0.11700
H1110       H  0.65541290  0.82038032  0.62430772     0.12800
H1111       H  0.70052046  0.71768665  0.57343984     0.11900
H1112       H  0.72295302  0.72688346  0.60872257     0.11200
H1113       H  0.72893295  0.75082474  0.64325330     0.16500
H1114       H  0.68650644  0.81082233  0.65292331     0.12500
H1115       H  0.62563197  0.78625682  0.55583935     0.15300
H1116       H  0.66974438  0.72768725  0.54441347     0.15100
C1117       C  0.64587716  0.64618195  0.77207150    -0.17800
C1118       C  0.63341394  0.62635499  0.76588770    -0.20000
C1119       C  0.64186747  0.61208544  0.74824052     0.20700
C1120       C  0.66275656  0.61816665  0.73629257    -0.02900
C1121       C  0.67534876  0.63823260  0.74253648    -0.06000
C1122       C  0.66703558  0.65221653  0.76069844     0.21000
C1123       C  0.69637635  0.64415288  0.73073761     0.19100
C1124       C  0.70456437  0.63013879  0.71277678    -0.17400
C1125       C  0.69233696  0.61012044  0.70688248    -0.19700
C1126       C  0.67153270  0.60378291  0.71867504     0.20600
C1127       C  0.66024263  0.58267223  0.71422175    -0.32700
C1128       C  0.64045806  0.57568003  0.72738722     0.01300
C1129       C  0.63065856  0.59113909  0.74340069    -0.24000
C1130       C  0.67978756  0.67213689  0.76682874    -0.28600
C1131       C  0.70052604  0.67843525  0.75470077     0.07000
C1132       C  0.70868489  0.66415522  0.73681041    -0.27300
H1133       H  0.63904424  0.65670578  0.78590564     0.11700
H1134       H  0.61738365  0.62192013  0.77527545     0.12800
H1135       H  0.72063407  0.63452698  0.70343670     0.11900
H1136       H  0.69938114  0.59939236  0.69331874     0.11200
H1137       H  0.66812360  0.57082300  0.70214903     0.16500
H1138       H  0.61544896  0.58585555  0.75368639     0.12500
H1139       H  0.67296521  0.68330517  0.78014115     0.15300
H1140       H  0.72442435  0.66902918  0.72712303     0.15100
C1141       C  0.57580066  0.75824006  0.71280276    -0.17800
C1142       C  0.55363929  0.74786726  0.71020009    -0.20000
C1143       C  0.55157989  0.72394976  0.70899544     0.20700
C1144       C  0.57215468  0.71041747  0.70925143    -0.02900
C1145       C  0.59457546  0.72092938  0.71153980    -0.06000
C1146       C  0.59631799  0.74489384  0.71401350     0.21000
C1147       C  0.61510143  0.70734289  0.71264748     0.19100
C1148       C  0.61307157  0.68346439  0.71087072    -0.17400
C1149       C  0.59084093  0.67303128  0.70912482    -0.19700
C1150       C  0.57025090  0.68630170  0.70880796     0.20600
C1151       C  0.54782604  0.67588495  0.70989016    -0.32700
C1152       C  0.52736739  0.68929339  0.71108792     0.01300
C1153       C  0.52931038  0.71326847  0.70941494    -0.24000
C1154       C  0.61838348  0.75495030  0.71867590    -0.28600
C1155       C  0.63882700  0.74143153  0.72045758     0.07000
C1156       C  0.63714093  0.71773840  0.71665711    -0.27300
H1157       H  0.57682831  0.77666921  0.71449481     0.11700
H1158       H  0.53802853  0.75850449  0.71002977     0.12800
H1159       H  0.62863558  0.67277412  0.71169128     0.11900
H1160       H  0.58972459  0.65451675  0.70872151     0.11200
H1161       H  0.54633500  0.65742718  0.71169821     0.16500
H1162       H  0.51355271  0.72359889  0.71098127     0.12500
H1163       H  0.61960240  0.77324372  0.72143723     0.15300
H1164       H  0.65278648  0.70720691  0.71820718     0.15100
C1165       C  0.67886049  0.32272552  0.58181427    -0.17800
C1166       C  0.68489734  0.31060749  0.60226906    -0.20000
C1167       C  0.70262282  0.31885550  0.61715377     0.20700
C1168       C  0.71386367  0.33986888  0.61173569    -0.02900
C1169       C  0.70722504  0.35245605  0.59148341    -0.06000
C1170       C  0.69009218  0.34356300  0.57608383     0.21000
C1171       C  0.71845053  0.37348923  0.58616546     0.19100
C1172       C  0.73573897  0.38203606  0.60132349    -0.17400
C1173       C  0.74248723  0.36947029  0.62120216    -0.19700
C1174       C  0.73188360  0.34824469  0.62644502     0.20600
C1175       C  0.73855968  0.33556458  0.64644334    -0.32700
C1176       C  0.72689700  0.31502108  0.65236926     0.01300
C1177       C  0.70899169  0.30674070  0.63759404    -0.24000
C1178       C  0.68582172  0.35480775  0.55452149    -0.28600
C1179       C  0.69861951  0.37468747  0.54829262     0.07000
C1180       C  0.71356425  0.38474187  0.56492549    -0.27300
H1181       H  0.66564559  0.31561598  0.57029441     0.11700
H1182       H  0.67596448  0.29456591  0.60624711     0.12800
H1183       H  0.74452987  0.39817625  0.59745775     0.11900
H1184       H  0.75612560  0.37630641  0.63241460     0.11200
H1185       H  0.75172092  0.34240386  0.65821811     0.16500
H1186       H  0.69950721  0.29121341  0.64248545     0.12500
H1187       H  0.67455394  0.34680227  0.54167412     0.15300
H1188       H  0.72355707  0.39998978  0.56009923     0.15100
C1189       C  0.55040699  0.32326070  0.71369743    -0.17800
C1190       C  0.57027943  0.31005014  0.71945269    -0.20000
C1191       C  0.58629143  0.31731644  0.73660931     0.20700
C1192       C  0.58215024  0.33806494  0.74812026    -0.02900
C1193       C  0.56241920  0.35166072  0.74189250    -0.06000
C1194       C  0.54629622  0.34418830  0.72473028     0.21000
C1195       C  0.55884134  0.37273585  0.75290894     0.19100
C1196       C  0.57470719  0.37997588  0.77014792    -0.17400
C1197       C  0.59403031  0.36644494  0.77647704    -0.19700
C1198       C  0.59799679  0.34551111  0.76553613     0.20600
C1199       C  0.61808169  0.33244437  0.77101001    -0.32700
C1200       C  0.62304457  0.31243642  0.75873967     0.01300
C1201       C  0.60685500  0.30475941  0.74181007    -0.24000
C1202       C  0.52603180  0.35740063  0.71955405    -0.28600
C1203       C  0.52189536  0.37803973  0.73127928     0.07000
C1204       C  0.53906457  0.38594177  0.74710661    -0.27300
H1205       H  0.53829286  0.31713503  0.70053306     0.11700
H1206       H  0.57315960  0.29415039  0.71041776     0.12800
H1207       H  0.57208881  0.39609093  0.77886684     0.11900
H1208       H  0.60605093  0.37250474  0.78975795     0.11200
H1209       H  0.63081103  0.33877171  0.78352356     0.16500
H1210       H  0.61084472  0.28953673  0.73199458     0.12500
H1211       H  0.51290228  0.35100110  0.70750516     0.15300
H1212       H  0.53633504  0.40194630  0.75601235     0.15100
C1213       C  0.62096309  0.43077126  0.72776120    -0.17800
C1214       C  0.63032175  0.40863093  0.72956732    -0.20000
C1215       C  0.65455031  0.40489489  0.72614212     0.20700
C1216       C  0.66936511  0.42364511  0.72025919    -0.02900
C1217       C  0.65982153  0.44596046  0.71800184    -0.06000
C1218       C  0.63557874  0.44959928  0.72219822     0.21000
C1219       C  0.67476020  0.46475854  0.71265779     0.19100
C1220       C  0.69895281  0.46103304  0.70916974    -0.17400
C1221       C  0.70841574  0.43901821  0.71159907    -0.19700
C1222       C  0.69386093  0.42025506  0.71746612     0.20600
C1223       C  0.70347243  0.39833057  0.72128639    -0.32700
C1224       C  0.68888384  0.37958374  0.72736336     0.01300
C1225       C  0.66434789  0.38291693  0.72923949    -0.24000
C1226       C  0.62670580  0.47209724  0.72207621    -0.28600
C1227       C  0.64168377  0.49097319  0.71755893     0.07000
C1228       C  0.66554721  0.48707727  0.71226657    -0.27300
H1229       H  0.60232750  0.43321083  0.73110144     0.11700
H1230       H  0.61867432  0.39448412  0.73416575     0.12800
H1231       H  0.71068705  0.47525960  0.70511800     0.11900
H1232       H  0.72723098  0.43673481  0.70928347     0.11200
H1233       H  0.72236069  0.39584988  0.71977431     0.16500
H1234       H  0.65304910  0.36859646  0.73419375     0.12500
H1235       H  0.60852426  0.47508183  0.72703612     0.15300
H1236       H  0.67732083  0.50160950  0.70972859     0.15100
C1237       C  0.20729831  0.68542406  0.59236275    -0.17800
C1238       C  0.20264189  0.69798558  0.61246340    -0.20000
C1239       C  0.21754225  0.71609447  0.61889841     0.20700
C1240       C  0.23737478  0.72154111  0.60483767    -0.02900
C1241       C  0.24196603  0.70896956  0.58439498    -0.06000
C1242       C  0.22683214  0.69084894  0.57816950     0.21000
C1243       C  0.26145064  0.71477597  0.57000931     0.19100
C1244       C  0.27640358  0.73283399  0.57649183    -0.17400
C1245       C  0.27215929  0.74495274  0.59698232    -0.19700
C1246       C  0.25268707  0.73946532  0.61124616     0.20600
C1247       C  0.24857761  0.75122180  0.63206880    -0.32700
C1248       C  0.22910986  0.74563932  0.64647846     0.01300
C1249       C  0.21333960  0.72840197  0.63945078    -0.24000
C1250       C  0.23085820  0.67912949  0.55733810    -0.28600
C1251       C  0.24927168  0.68577760  0.54204361     0.07000
C1252       C  0.26501939  0.70311134  0.54893851    -0.27300
H1253       H  0.19542064  0.67161463  0.58775452     0.11700
H1254       H  0.18740489  0.69346782  0.62303573     0.12800
H1255       H  0.29136988  0.73764193  0.56566837     0.11900
H1256       H  0.28409185  0.75870089  0.60163820     0.11200
H1257       H  0.26092316  0.76437694  0.63744552     0.16500
H1258       H  0.19862112  0.72367529  0.65065770     0.12500
H1259       H  0.21868583  0.66571710  0.55225820     0.15300
H1260       H  0.27901874  0.70860633  0.53719480     0.15100
C1261       C  0.39319821  0.69070642  0.77307667    -0.17800
C1262       C  0.37231357  0.70273788  0.77704986    -0.20000
C1263       C  0.36579172  0.72103864  0.76229273     0.20700
C1264       C  0.38067227  0.72741712  0.74345408    -0.02900
C1265       C  0.40188947  0.71533825  0.73952774    -0.06000
C1266       C  0.40803741  0.69680092  0.75432654     0.21000
C1267       C  0.41689064  0.72177209  0.72080588     0.19100
C1268       C  0.41057350  0.74035673  0.70630444    -0.17400
C1269       C  0.38934629  0.75203562  0.70991294    -0.19700
C1270       C  0.37415698  0.74557659  0.72830781     0.20600
C1271       C  0.35230503  0.75650377  0.73147323    -0.32700
C1272       C  0.33715093  0.74995909  0.74999176     0.01300
C1273       C  0.34433275  0.73258331  0.76564536    -0.24000
C1274       C  0.42911108  0.68492745  0.75041682    -0.28600
C1275       C  0.44450696  0.69149686  0.73215089     0.07000
C1276       C  0.43809075  0.70978952  0.71720614    -0.27300
H1277       H  0.39774806  0.67659724  0.78470167     0.11700
H1278       H  0.36112110  0.69756190  0.79155706     0.12800
H1279       H  0.42195087  0.74573372  0.69200988     0.11900
H1280       H  0.38474277  0.76606414  0.69821065     0.11200
H1281       H  0.34680693  0.76978945  0.71923982     0.16500
H1282       H  0.33257438  0.72716053  0.77963393     0.12500
H1283       H  0.43392326  0.67093998  0.76210334     0.15300
H1284       H  0.45007300  0.71535614  0.70346866     0.15100
C1285       C  0.28207455  0.64436223  0.67143599    -0.17800
C1286       C  0.28620694  0.62107032  0.66742528    -0.20000
C1287       C  0.29144701  0.60600207  0.68606072     0.20700
C1288       C  0.29382036  0.61484137  0.70877354    -0.02900
C1289       C  0.28941699  0.63825559  0.71285340    -0.06000
C1290       C  0.28296257  0.65301555  0.69418052     0.21000
C1291       C  0.29008943  0.64654175  0.73586222     0.19100
C1292       C  0.29651461  0.63183734  0.75434455    -0.17400
C1293       C  0.30095481  0.60874811  0.75030555    -0.19700
C1294       C  0.29898950  0.59999439  0.72772878     0.20600
C1295       C  0.30021711  0.57639896  0.72416162    -0.32700
C1296       C  0.29563410  0.56721994  0.70210103     0.01300
C1297       C  0.29250496  0.58211295  0.68280497    -0.24000
C1298       C  0.27629027  0.67573704  0.69882515    -0.28600
C1299       C  0.27541563  0.68348252  0.72197255     0.07000
C1300       C  0.28306613  0.66901187  0.74022769    -0.27300
H1301       H  0.27733018  0.65543256  0.65684290     0.11700
H1302       H  0.28448157  0.61469511  0.64984611     0.12800
H1303       H  0.29729328  0.63801416  0.77206722     0.11900
H1304       H  0.30498693  0.59753814  0.76500638     0.11200
H1305       H  0.30249755  0.56490484  0.73904594     0.16500
H1306       H  0.28863648  0.57507054  0.66582439     0.12500
H1307       H  0.27033614  0.68685169  0.68470321     0.15300
H1308       H  0.28266462  0.67503357  0.75804052     0.15100
C1309       C  0.28222844  0.30719305  0.57406687    -0.17800
C1310       C  0.27503535  0.29497893  0.59415925    -0.20000
C1311       C  0.26198394  0.30576796  0.61167968     0.20700
C1312       C  0.25705836  0.32935874  0.60934247    -0.02900
C1313       C  0.26500690  0.34184221  0.58943475    -0.06000
C1314       C  0.27693097  0.33055560  0.57131170     0.21000
C1315       C  0.26002012  0.36540244  0.58718870     0.19100
C1316       C  0.24780804  0.37643511  0.60508256    -0.17400
C1317       C  0.23979323  0.36407015  0.62466636    -0.19700
C1318       C  0.24398333  0.34047206  0.62679122     0.20600
C1319       C  0.23578030  0.32793711  0.64632008    -0.32700
C1320       C  0.24091515  0.30454460  0.64902281     0.01300
C1321       C  0.25416606  0.29357543  0.63169800    -0.24000
C1322       C  0.28154159  0.34237305  0.55010807    -0.28600
C1323       C  0.27444070  0.36530657  0.54701690     0.07000
C1324       C  0.26553738  0.37711162  0.56631301    -0.27300
H1325       H  0.29154071  0.29824547  0.56047114     0.11700
H1326       H  0.27925584  0.27695353  0.59576216     0.12800
H1327       H  0.24383593  0.39452646  0.60361557     0.11900
H1328       H  0.23009910  0.37293897  0.63805964     0.11200
H1329       H  0.22661738  0.33668439  0.66018356     0.16500
H1330       H  0.25905111  0.27578903  0.63424088     0.12500
H1331       H  0.28802667  0.33302981  0.53523331     0.15300
H1332       H  0.25975464  0.39466564  0.56390131     0.15100
C1333       C  0.23502682  0.41617352  0.67461400    -0.17800
C1334       C  0.23876387  0.43939230  0.66960053    -0.20000
C1335       C  0.26020970  0.44993724  0.67550689     0.20700
C1336       C  0.27874128  0.43666116  0.68494950    -0.02900
C1337       C  0.27495199  0.41320938  0.69005319    -0.06000
C1338       C  0.25266099  0.40320991  0.68565821     0.21000
C1339       C  0.29279997  0.40026005  0.70120081     0.19100
C1340       C  0.31473040  0.41052800  0.70583901    -0.17400
C1341       C  0.31842330  0.43384086  0.70092970    -0.19700
C1342       C  0.30027589  0.44722829  0.69122254     0.20600
C1343       C  0.30236726  0.47122144  0.68980905    -0.32700
C1344       C  0.28296106  0.48454292  0.68284047     0.01300
C1345       C  0.26257694  0.47379222  0.67430632    -0.24000
C1346       C  0.24784776  0.38097012  0.69384508    -0.28600
C1347       C  0.26503230  0.36862107  0.70624598     0.07000
C1348       C  0.28782001  0.37780831  0.70890595    -0.27300
H1349       H  0.21795427  0.40863000  0.67085964     0.11700
H1350       H  0.22445417  0.44935209  0.66217563     0.12800
H1351       H  0.32866549  0.40078827  0.71423182     0.11900
H1352       H  0.33510102  0.44161820  0.70572493     0.11200
H1353       H  0.31795197  0.47958237  0.69671103     0.16500
H1354       H  0.24756940  0.48416838  0.66917585     0.12500
H1355       H  0.23041043  0.37359286  0.69150334     0.15300
H1356       H  0.30106859  0.36812113  0.71844214     0.15100
C1357       C  0.37684793  0.38929941  0.74660431    -0.17800
C1358       C  0.35779502  0.37615852  0.75495763    -0.20000
C1359       C  0.35803700  0.35219261  0.75343308     0.20700
C1360       C  0.37760970  0.34139375  0.74313677    -0.02900
C1361       C  0.39689683  0.35468077  0.73473222    -0.06000
C1362       C  0.39656794  0.37872278  0.73665127     0.21000
C1363       C  0.41674061  0.34386226  0.72496357     0.19100
C1364       C  0.41678304  0.31992718  0.72306600    -0.17400
C1365       C  0.39746277  0.30681585  0.73088311    -0.19700
C1366       C  0.37782701  0.31734566  0.74104340     0.20600
C1367       C  0.35806285  0.30437495  0.74836420    -0.32700
C1368       C  0.33832243  0.31507715  0.75824599     0.01300
C1369       C  0.33867891  0.33892631  0.76119030    -0.24000
C1370       C  0.41653007  0.39162171  0.72993211    -0.28600
C1371       C  0.43721304  0.38077282  0.72216544     0.07000
C1372       C  0.43672450  0.35699315  0.71861226    -0.27300
H1373       H  0.37630117  0.40774396  0.74824746     0.11700
H1374       H  0.34282709  0.38476378  0.76258236     0.12800
H1375       H  0.43186621  0.31130641  0.71568641     0.11900
H1376       H  0.39793450  0.28838897  0.72907651     0.11200
H1377       H  0.35751635  0.28609687  0.74536625     0.16500
H1378       H  0.32313592  0.34731219  0.76795998     0.12500
H1379       H  0.41689541  0.40989440  0.73300971     0.15300
H1380       H  0.45266732  0.34844275  0.71307985     0.15100
C1381       C  0.11591133  0.11579494  0.04774094    -0.17800
C1382       C  0.13692295  0.12853304  0.04708235    -0.20000
C1383       C  0.13978797  0.14680123  0.03107184     0.20700
C1384       C  0.12096735  0.15275717  0.01610039    -0.02900
C1385       C  0.09954478  0.13996341  0.01691436    -0.06000
C1386       C  0.09725084  0.12113999  0.03250202     0.21000
C1387       C  0.08082617  0.14543032  0.00153639     0.19100
C1388       C  0.08361732  0.16405201  0.98589550    -0.17400
C1389       C  0.10487911  0.17658639  0.98497174    -0.19700
C1390       C  0.12387404  0.17087248  0.99971927     0.20600
C1391       C  0.14595715  0.18226152  0.99773859    -0.32700
C1392       C  0.16524397  0.17580515  0.01199766     0.01300
C1393       C  0.16152429  0.15844089  0.02910656    -0.24000
C1394       C  0.07678131  0.10740305  0.03196353    -0.28600
C1395       C  0.05826233  0.11211898  0.01617020     0.07000
C1396       C  0.06014811  0.13163195  0.00143251    -0.27300
H1397       H  0.11443992  0.10144303  0.05988573     0.11700
H1398       H  0.15118100  0.12371686  0.05873938     0.12800
H1399       H  0.06951941  0.16862150  0.97395840     0.11900
H1400       H  0.10662588  0.19049345  0.97234069     0.11200
H1401       H  0.14830496  0.19562276  0.98463787     0.16500
H1402       H  0.17608264  0.15289169  0.04002099     0.12500
H1403       H  0.07555721  0.09244736  0.04337955     0.15300
H1404       H  0.04620652  0.13526327  0.98898423     0.15100
C1405       C  0.21315830  0.17765589  0.90334263    -0.17800
C1406       C  0.22173676  0.18913066  0.88345400    -0.20000
C1407       C  0.22139702  0.21312674  0.88200398     0.20700
C1408       C  0.21161282  0.22570218  0.90044162    -0.02900
C1409       C  0.20292948  0.21407286  0.92059130    -0.06000
C1410       C  0.20412139  0.18997092  0.92216665     0.21000
C1411       C  0.19415915  0.22658264  0.93958347     0.19100
C1412       C  0.19290871  0.25057014  0.93762957    -0.17400
C1413       C  0.20098026  0.26207159  0.91741727    -0.19700
C1414       C  0.21077656  0.24985470  0.89885720     0.20600
C1415       C  0.21930141  0.26120964  0.87856145    -0.32700
C1416       C  0.22911389  0.24864983  0.86019212     0.01300
C1417       C  0.23024218  0.22468609  0.86220144    -0.24000
C1418       C  0.19815682  0.17872088  0.94320656    -0.28600
C1419       C  0.19220040  0.19123925  0.96313728     0.07000
C1420       C  0.18869974  0.21504362  0.96076766    -0.27300
H1421       H  0.21421332  0.15914633  0.90426469     0.11700
H1422       H  0.22892634  0.17922908  0.86930947     0.12800
H1423       H  0.18614428  0.26049717  0.95195304     0.11900
H1424       H  0.19995537  0.28058013  0.91648966     0.11200
H1425       H  0.21746675  0.27960662  0.87663518     0.16500
H1426       H  0.23679851  0.21492732  0.84762021     0.12500
H1427       H  0.20123586  0.16046574  0.94502108     0.15300
H1428       H  0.18453637  0.22487836  0.97611053     0.15100
C1429       C  0.70300783  0.72892355  0.43553778    -0.17800
C1430       C  0.71266153  0.73034946  0.41305466    -0.20000
C1431       C  0.69794896  0.73259340  0.39343549     0.20700
C1432       C  0.67321686  0.73213058  0.39643236    -0.02900
C1433       C  0.66346797  0.73118658  0.41918299    -0.06000
C1434       C  0.67849035  0.73005456  0.43882416     0.21000
C1435       C  0.63882182  0.73302374  0.42229062     0.19100
C1436       C  0.62406410  0.73386453  0.40260199    -0.17400
C1437       C  0.63368592  0.73404663  0.38006547    -0.19700
C1438       C  0.65824915  0.73403923  0.37680595     0.20600
C1439       C  0.66808235  0.73734036  0.35444381    -0.32700
C1440       C  0.69266855  0.73973229  0.35155754     0.01300
C1441       C  0.70750340  0.73658336  0.37106909    -0.24000
C1442       C  0.66890420  0.73190954  0.46132910    -0.28600
C1443       C  0.64466220  0.73583897  0.46440570     0.07000
C1444       C  0.62959626  0.73563332  0.44490676    -0.27300
H1445       H  0.71478651  0.72794947  0.45041728     0.11700
H1446       H  0.73168046  0.73041471  0.41106807     0.12800
H1447       H  0.60509658  0.73504359  0.40462248     0.11900
H1448       H  0.62192391  0.73519335  0.36518778     0.11200
H1449       H  0.65650505  0.73981790  0.33955368     0.16500
H1450       H  0.72646818  0.73814685  0.36897105     0.12500
H1451       H  0.68057968  0.73267145  0.47630539     0.15300
H1452       H  0.61098443  0.73917757  0.44722074     0.15100
C1453       C  0.54411789  0.75873510  0.29827391    -0.17800
C1454       C  0.56432310  0.76415181  0.28511414    -0.20000
C1455       C  0.58505877  0.77168589  0.29610217     0.20700
C1456       C  0.58548220  0.77348570  0.32066026    -0.02900
C1457       C  0.56524926  0.76756923  0.33396950    -0.06000
C1458       C  0.54435251  0.76042814  0.32271352     0.21000
C1459       C  0.56578054  0.76935926  0.35850211     0.19100
C1460       C  0.58651242  0.77676106  0.36953139    -0.17400
C1461       C  0.60650677  0.78262723  0.35637765    -0.19700
C1462       C  0.60614114  0.78116897  0.33195779     0.20600
C1463       C  0.62622969  0.78681855  0.31869757    -0.32700
C1464       C  0.62609547  0.78467095  0.29432386     0.01300
C1465       C  0.60551423  0.77702497  0.28308767    -0.24000
C1466       C  0.52381287  0.75620228  0.33600326    -0.28600
C1467       C  0.52396429  0.75909642  0.36037069     0.07000
C1468       C  0.54525785  0.76483538  0.37150834    -0.27300
H1469       H  0.52824217  0.75335285  0.28930584     0.11700
H1470       H  0.56366801  0.76261796  0.26630047     0.12800
H1471       H  0.58719320  0.77825331  0.38834974     0.11900
H1472       H  0.62229185  0.78828269  0.36532982     0.11200
H1473       H  0.64241318  0.79180654  0.32742175     0.16500
H1474       H  0.60569723  0.77461793  0.26436049     0.12500
H1475       H  0.50732255  0.75238220  0.32724420     0.15300
H1476       H  0.54531764  0.76751624  0.39020025     0.15100
C1477       C  0.66790617  0.61276964  0.29325479    -0.17800
C1478       C  0.67298187  0.63401886  0.28264432    -0.20000
C1479       C  0.69509481  0.64456318  0.28574851     0.20700
C1480       C  0.71207116  0.63387734  0.30011584    -0.02900
C1481       C  0.70679408  0.61257188  0.31113845    -0.06000
C1482       C  0.68475486  0.60173466  0.30736411     0.21000
C1483       C  0.72384383  0.60180883  0.32535774     0.19100
C1484       C  0.74574710  0.61261098  0.32890995    -0.17400
C1485       C  0.75096801  0.63366770  0.31799190    -0.19700
C1486       C  0.73437969  0.64437295  0.30333894     0.20600
C1487       C  0.73953245  0.66554632  0.29223609    -0.32700
C1488       C  0.72245871  0.67658550  0.27834335     0.01300
C1489       C  0.70037554  0.66576592  0.27502883    -0.24000
C1490       C  0.68048955  0.57957062  0.31667070    -0.28600
C1491       C  0.69809050  0.56810979  0.32953474     0.07000
C1492       C  0.71922348  0.57988362  0.33472781    -0.27300
H1493       H  0.65089218  0.60481993  0.29016307     0.11700
H1494       H  0.65966579  0.64210738  0.27178610     0.12800
H1495       H  0.75904322  0.60455588  0.33981627     0.11900
H1496       H  0.76807146  0.64150878  0.32089338     0.11200
H1497       H  0.75632147  0.67395150  0.29534470     0.16500
H1498       H  0.68699302  0.67421293  0.26450727     0.12500
H1499       H  0.66436157  0.57055991  0.31225070     0.15300
H1500       H  0.73290121  0.57117604  0.34462527     0.15100
C1501       C  0.73249995  0.37094830  0.38553173    -0.17800
C1502       C  0.72566625  0.38336322  0.40511921    -0.20000
C1503       C  0.71110681  0.37331657  0.42233536     0.20700
C1504       C  0.70299542  0.35066555  0.41958707    -0.02900
C1505       C  0.70978535  0.33815843  0.39970776    -0.06000
C1506       C  0.72475419  0.34829355  0.38266103     0.21000
C1507       C  0.70174163  0.31546734  0.39699933     0.19100
C1508       C  0.68715838  0.30543958  0.41420427    -0.17400
C1509       C  0.68096640  0.31760827  0.43416708    -0.19700
C1510       C  0.68891734  0.34018782  0.43715076     0.20600
C1511       C  0.68457662  0.35182352  0.45809047    -0.32700
C1512       C  0.69416856  0.37377892  0.46165659     0.01300
C1513       C  0.70604975  0.38490850  0.44303589    -0.24000
C1514       C  0.73126919  0.33577440  0.36284423    -0.28600
C1515       C  0.72267535  0.31339505  0.35969573     0.07000
C1516       C  0.70803983  0.30336067  0.37693811    -0.27300
H1517       H  0.74385886  0.37909315  0.37260850     0.11700
H1518       H  0.73217963  0.40070800  0.40703350     0.12800
H1519       H  0.68077993  0.28803920  0.41236861     0.11900
H1520       H  0.67020616  0.30922938  0.44743863     0.11200
H1521       H  0.67610951  0.34280460  0.47253844     0.16500
H1522       H  0.71401501  0.40155883  0.44589989     0.12500
H1523       H  0.74185133  0.34387604  0.34923898     0.15300
H1524       H  0.70092604  0.28632243  0.37429287     0.15100
C1525       C  0.68588180  0.42771250  0.35664465    -0.17800
C1526       C  0.68752842  0.40504723  0.34925957    -0.20000
C1527       C  0.68110574  0.39921385  0.32644900     0.20700
C1528       C  0.67133951  0.41607571  0.31144534    -0.02900
C1529       C  0.66921537  0.43890476  0.31907257    -0.06000
C1530       C  0.67742711  0.44488926  0.34144695     0.21000
C1531       C  0.66083972  0.45606371  0.30358949     0.19100
C1532       C  0.65306908  0.44993955  0.28124603    -0.17400
C1533       C  0.65531520  0.42736841  0.27364615    -0.19700
C1534       C  0.66531974  0.41052525  0.28828155     0.20600
C1535       C  0.67076143  0.38869101  0.27979188    -0.32700
C1536       C  0.68152245  0.37221074  0.29438456     0.01300
C1537       C  0.68564976  0.37723393  0.31794815    -0.24000
C1538       C  0.67920186  0.46810943  0.34733683    -0.28600
C1539       C  0.67321668  0.48536511  0.33104070     0.07000
C1540       C  0.66260334  0.47920903  0.30983919    -0.27300
H1541       H  0.69212392  0.43195600  0.37393245     0.11700
H1542       H  0.69477762  0.39226167  0.36106360     0.12800
H1543       H  0.64635210  0.46283610  0.26921470     0.11900
H1544       H  0.65014995  0.42331172  0.25597062     0.11200
H1545       H  0.66731243  0.38471432  0.26167975     0.16500
H1546       H  0.69399643  0.36454157  0.32919301     0.12500
H1547       H  0.68786835  0.47282391  0.36345586     0.15300
H1548       H  0.65856140  0.49246914  0.29701047     0.15100
C1549       C  0.60467949  0.37350478  0.27675129    -0.17800
C1550       C  0.58555129  0.38609279  0.28493887    -0.20000
C1551       C  0.56347977  0.37555013  0.28827100     0.20700
C1552       C  0.56093796  0.35184497  0.28430918    -0.02900
C1553       C  0.58020918  0.33917923  0.27576016    -0.06000
C1554       C  0.60205848  0.35018576  0.27168920     0.21000
C1555       C  0.57751782  0.31563081  0.27094851     0.19100
C1556       C  0.55563453  0.30494872  0.27517954    -0.17400
C1557       C  0.53646762  0.31755135  0.28344205    -0.19700
C1558       C  0.53882968  0.34106901  0.28769534     0.20600
C1559       C  0.51908351  0.35436335  0.29329483    -0.32700
C1560       C  0.52107103  0.37833567  0.29444069     0.01300
C1561       C  0.54350437  0.38862954  0.29346281    -0.24000
C1562       C  0.62104269  0.33759697  0.26303711    -0.28600
C1563       C  0.61871801  0.31406698  0.25858590     0.07000
C1564       C  0.59688561  0.30314488  0.26249091    -0.27300
H1565       H  0.62140069  0.38214088  0.27392350     0.11700
H1566       H  0.58785479  0.40422898  0.28800656     0.12800
H1567       H  0.55323610  0.28689361  0.27177326     0.11900
H1568       H  0.51960637  0.30901260  0.28592318     0.11200
H1569       H  0.50170962  0.34647458  0.29371153     0.16500
H1570       H  0.54495994  0.40713268  0.29407897     0.12500
H1571       H  0.63814824  0.34582408  0.26092739     0.15300
H1572       H  0.59533251  0.28483864  0.26001684     0.15100
C1573       C  0.26660305  0.68441722  0.37303423    -0.17800
C1574       C  0.26676559  0.67342790  0.39499533    -0.20000
C1575       C  0.26793719  0.68620115  0.41555066     0.20700
C1576       C  0.26941072  0.71031678  0.41388230    -0.02900
C1577       C  0.26871339  0.72144318  0.39171598    -0.06000
C1578       C  0.26727041  0.70843674  0.37117492     0.21000
C1579       C  0.26852996  0.74559126  0.39018767     0.19100
C1580       C  0.26990345  0.75837157  0.41069697    -0.17400
C1581       C  0.27094429  0.74738179  0.43257128    -0.19700
C1582       C  0.27039496  0.72338726  0.43439345     0.20600
C1583       C  0.26931614  0.71233238  0.45636209    -0.32700
C1584       C  0.26642134  0.68843984  0.45816974     0.01300
C1585       C  0.26623636  0.67543309  0.43769929    -0.24000
C1586       C  0.26566528  0.71969577  0.34925768    -0.28600
C1587       C  0.26459462  0.74378183  0.34771027     0.07000
C1588       C  0.26621500  0.75655083  0.36827587    -0.27300
H1589       H  0.26536508  0.67411973  0.35750321     0.11700
H1590       H  0.26556715  0.65491488  0.39590571     0.12800
H1591       H  0.26980107  0.77691572  0.40984534     0.11900
H1592       H  0.27154612  0.75768869  0.44812283     0.11200
H1593       H  0.26859658  0.72245698  0.47205430     0.16500
H1594       H  0.26324616  0.65710871  0.43900884     0.12500
H1595       H  0.26403494  0.70972708  0.33352128     0.15300
H1596       H  0.26534869  0.77508009  0.36720442     0.15100
C1597       C  0.28995104  0.63952622  0.27526603    -0.17800
C1598       C  0.29515805  0.61874267  0.28659354    -0.20000
C1599       C  0.27961380  0.60935165  0.30328992     0.20700
C1600       C  0.25869228  0.62122981  0.30876389    -0.02900
C1601       C  0.25326827  0.64206942  0.29708705    -0.06000
C1602       C  0.26901772  0.65123739  0.28030189     0.21000
C1603       C  0.23204523  0.65363875  0.30210888     0.19100
C1604       C  0.21658650  0.64433994  0.31893612    -0.17400
C1605       C  0.22190065  0.62366037  0.33041994    -0.19700
C1606       C  0.24280253  0.61191053  0.32532821     0.20600
C1607       C  0.24734727  0.59032656  0.33539356    -0.32700
C1608       C  0.26717116  0.57755002  0.32861777     0.01300
C1609       C  0.28384968  0.58764983  0.31345975    -0.24000
C1610       C  0.26379712  0.67217601  0.26917926    -0.28600
C1611       C  0.24294259  0.68409987  0.27441667     0.07000
C1612       C  0.22690833  0.67449814  0.29057832    -0.27300
H1613       H  0.30224627  0.64637278  0.26242151     0.11700
H1614       H  0.31121734  0.60985765  0.28206305     0.12800
H1615       H  0.20029356  0.65299321  0.32312019     0.11900
H1616       H  0.20945034  0.61665622  0.34302958     0.11200
H1617       H  0.23428627  0.58245798  0.34685677     0.16500
H1618       H  0.29884103  0.57771267  0.30777710     0.12500
H1619       H  0.27634711  0.67962094  0.25689666     0.15300
H1620       H  0.21112298  0.68385731  0.29510056     0.15100
C1621       C  0.37006853  0.81484631  0.34260877    -0.17800
C1622       C  0.38907659  0.80922655  0.35717517    -0.20000
C1623       C  0.40442019  0.79134709  0.35146416     0.20700
C1624       C  0.40075720  0.77913851  0.33077631    -0.02900
C1625       C  0.38137931  0.78464671  0.31617648    -0.06000
C1626       C  0.36589473  0.80254097  0.32217453     0.21000
C1627       C  0.37718506  0.77188892  0.29590823     0.19100
C1628       C  0.39278554  0.75428912  0.28999426    -0.17400
C1629       C  0.41226763  0.74918003  0.30419035    -0.19700
C1630       C  0.41636108  0.76136866  0.32474425     0.20600
C1631       C  0.43607610  0.75654383  0.33902111    -0.32700
C1632       C  0.44025853  0.76915843  0.35937416     0.01300
C1633       C  0.42367878  0.78588292  0.36584057    -0.24000
C1634       C  0.34594982  0.80710890  0.30823739    -0.28600
C1635       C  0.34092377  0.79350146  0.28884843     0.07000
C1636       C  0.35694232  0.77631911  0.28247220    -0.27300
H1637       H  0.35840848  0.82859850  0.34752896     0.11700
H1638       H  0.39180737  0.81892052  0.37292651     0.12800
H1639       H  0.38982524  0.74434846  0.27444537     0.11900
H1640       H  0.42404711  0.73556341  0.29916915     0.11200
H1641       H  0.44873058  0.74380388  0.33367581     0.16500
H1642       H  0.42629944  0.79547602  0.38166532     0.12500
H1643       H  0.33346424  0.82007769  0.31343323     0.15300
H1644       H  0.35304824  0.76572477  0.26756171     0.15100
C1645       C  0.08027563  0.05173453  0.13901896    -0.17800
C1646       C  0.10125621  0.05361085  0.15184120    -0.20000
C1647       C  0.12168460  0.04201075  0.14489705     0.20700
C1648       C  0.12081319  0.02805590  0.12503351    -0.02900
C1649       C  0.09965698  0.02618883  0.11206697    -0.06000
C1650       C  0.07931123  0.03825944  0.11896030     0.21000
C1651       C  0.09909799  0.01278616  0.09181568     0.19100
C1652       C  0.11936754  0.00089964  0.08501790    -0.17400
C1653       C  0.14026195  0.00270772  0.09787526    -0.19700
C1654       C  0.14123241  0.01639829  0.11777860     0.20600
C1655       C  0.16242437  0.01910847  0.13016331    -0.32700
C1656       C  0.16368549  0.03342946  0.14968738     0.01300
C1657       C  0.14306875  0.04451977  0.15714166    -0.24000
C1658       C  0.05874680  0.03738800  0.10513905    -0.28600
C1659       C  0.05861107  0.02502868  0.08428598     0.07000
C1660       C  0.07860929  0.01225344  0.07816011    -0.27300
H1661       H  0.06489773  0.06114867  0.14458367     0.11700
H1662       H  0.10158873  0.06440837  0.16704292     0.12800
H1663       H  0.11918007  0.99051143  0.06950882     0.11900
H1664       H  0.15576956  0.99364042  0.09205802     0.11200
H1665       H  0.17827303  0.01082316  0.12402119     0.16500
H1666       H  0.14368545  0.05529825  0.17228614     0.12500
H1667       H  0.04344613  0.04740093  0.10980111     0.15300
H1668       H  0.07850003  0.00257573  0.06214752     0.15100
C1669       C  0.24051029  0.94777683  0.15538281    -0.17800
C1670       C  0.24730121  0.92717005  0.16621074    -0.20000
C1671       C  0.23779053  0.92054501  0.18793480     0.20700
C1672       C  0.22083017  0.93465783  0.19857564    -0.02900
C1673       C  0.21387910  0.95542494  0.18757971    -0.06000
C1674       C  0.22404794  0.96214861  0.16604843     0.21000
C1675       C  0.19729306  0.96976376  0.19846239     0.19100
C1676       C  0.18743274  0.96292776  0.21996884    -0.17400
C1677       C  0.19404430  0.94221452  0.23068135    -0.19700
C1678       C  0.21082790  0.92804884  0.22021709     0.20600
C1679       C  0.21741148  0.90717407  0.23077142    -0.32700
C1680       C  0.23417404  0.89294856  0.22024809     0.01300
C1681       C  0.24451288  0.89984812  0.19895141    -0.24000
C1682       C  0.21857312  0.98366632  0.15622361    -0.28600
C1683       C  0.20313708  0.99860000  0.16764060     0.07000
C1684       C  0.19183466  0.99118595  0.18827352    -0.27300
H1685       H  0.24841763  0.95264335  0.13879871     0.11700
H1686       H  0.26010642  0.91646070  0.15763148     0.12800
H1687       H  0.17476305  0.97372004  0.22863593     0.11900
H1688       H  0.18614244  0.93734794  0.24726932     0.11200
H1689       H  0.20893027  0.90155154  0.24685886     0.16500
H1690       H  0.25675857  0.88852104  0.19037460     0.12500
H1691       H  0.22763747  0.98955407  0.14055204     0.15300
H1692       H  0.18044381  0.00289645  0.19743717     0.15100
C1693       C  0.21814788  0.36923354  0.38853587    -0.17800
C1694       C  0.22650252  0.38014228  0.40853479    -0.20000
C1695       C  0.24159011  0.36867312  0.42421353     0.20700
C1696       C  0.24838870  0.34599645  0.41967471    -0.02900
C1697       C  0.23982880  0.33491853  0.39952190    -0.06000
C1698       C  0.22466348  0.34661507  0.38384218     0.21000
C1699       C  0.24675223  0.31228790  0.39488310     0.19100
C1700       C  0.26172479  0.30078118  0.41064406    -0.17400
C1701       C  0.26986648  0.31161203  0.43078843    -0.19700
C1702       C  0.26339280  0.33425051  0.43547163     0.20600
C1703       C  0.27061884  0.34491141  0.45622312    -0.32700
C1704       C  0.26266957  0.36699037  0.46152523     0.01300
C1705       C  0.24897075  0.37905911  0.44494411    -0.24000
C1706       C  0.21713184  0.33585364  0.36327780    -0.28600
C1707       C  0.22499339  0.31375643  0.35796764     0.07000
C1708       C  0.23940547  0.30193214  0.37409483    -0.27300
H1709       H  0.20665256  0.37854349  0.37667323     0.11700
H1710       H  0.22102043  0.39753819  0.41182430     0.12800
H1711       H  0.26720606  0.28338518  0.40735587     0.11900
H1712       H  0.28120045  0.30223812  0.44275193     0.11200
H1713       H  0.28052158  0.33526332  0.46920590     0.16500
H1714       H  0.24232381  0.39585974  0.44921846     0.12500
H1715       H  0.20668770  0.34530068  0.35056416     0.15300
H1716       H  0.24597601  0.28511872  0.36976767     0.15100
C1717       C  0.39179657  0.37837621  0.23207997    -0.17800
C1718       C  0.37200966  0.36474570  0.22730459    -0.20000
C1719       C  0.36360363  0.34879439  0.24394675     0.20700
C1720       C  0.37540956  0.34661918  0.26562507    -0.02900
C1721       C  0.39568951  0.36009272  0.27027053    -0.06000
C1722       C  0.40381891  0.37605823  0.25343827     0.21000
C1723       C  0.40796203  0.35739566  0.29162081     0.19100
C1724       C  0.39923295  0.34186235  0.30850130    -0.17400
C1725       C  0.37882064  0.32895086  0.30415837    -0.19700
C1726       C  0.36692452  0.33105294  0.28270889     0.20600
C1727       C  0.34641388  0.31822099  0.27827334    -0.32700
C1728       C  0.33419857  0.32048317  0.25688069     0.01300
C1729       C  0.34326830  0.33547207  0.23957002    -0.24000
C1730       C  0.42433239  0.38883300  0.25782556    -0.28600
C1731       C  0.43808548  0.38476420  0.27806443     0.07000
C1732       C  0.42920973  0.36953998  0.29529564    -0.27300
H1733       H  0.39793260  0.39050032  0.21888118     0.11700
H1734       H  0.36319679  0.36678337  0.21062237     0.12800
H1735       H  0.40826355  0.33960360  0.32504203     0.11900
H1736       H  0.37242769  0.31716132  0.31754530     0.11200
H1737       H  0.33955722  0.30680279  0.29179029     0.16500
H1738       H  0.33380209  0.33769426  0.22325302     0.12500
H1739       H  0.43015622  0.40112619  0.24469761     0.15300
H1740       H  0.43937188  0.36617464  0.31097847     0.15100
C1741       C  0.29817860  0.45884828  0.27404063    -0.17800
C1742       C  0.29367929  0.43655342  0.26651102    -0.20000
C1743       C  0.28467216  0.41986167  0.28206963     0.20700
C1744       C  0.28143613  0.42535157  0.30577035    -0.02900
C1745       C  0.28578994  0.44793826  0.31333327    -0.06000
C1746       C  0.29360814  0.46488577  0.29722681     0.21000
C1747       C  0.28057874  0.45394660  0.33654458     0.19100
C1748       C  0.27259929  0.43699237  0.35235235    -0.17400
C1749       C  0.26875084  0.41452112  0.34499346    -0.19700
C1750       C  0.27252575  0.40865461  0.32161223     0.20600
C1751       C  0.26648675  0.38674802  0.31355894    -0.32700
C1752       C  0.26834177  0.38163702  0.28971352     0.01300
C1753       C  0.27785465  0.39813429  0.27415617    -0.24000
C1754       C  0.29451878  0.48789553  0.30398563    -0.28600
C1755       C  0.28686045  0.49424411  0.32630127     0.07000
C1756       C  0.28129392  0.47709611  0.34290910    -0.27300
H1757       H  0.30426310  0.47162018  0.26146611     0.11700
H1758       H  0.29653302  0.43256497  0.24832299     0.12800
H1759       H  0.26854579  0.44128644  0.37023752     0.11900
H1760       H  0.26195967  0.40193149  0.35740725     0.11200
H1761       H  0.25908569  0.37409484  0.32557690     0.16500
H1762       H  0.27952498  0.39415260  0.25580550     0.12500
H1763       H  0.29816603  0.50114726  0.29097823     0.15300
H1764       H  0.27477845  0.48201253  0.35990161     0.15100
C1765       C  0.18670479  0.24330500  0.07839248    -0.17800
C1766       C  0.19239536  0.25591887  0.09820926    -0.20000
C1767       C  0.21037105  0.24859032  0.11340969     0.20700
C1768       C  0.22269767  0.22829504  0.10869716    -0.02900
C1769       C  0.21669770  0.21536338  0.08883967    -0.06000
C1770       C  0.19873157  0.22300731  0.07349794     0.21000
C1771       C  0.22891094  0.19500809  0.08415158     0.19100
C1772       C  0.24682793  0.18762240  0.09943378    -0.17400
C1773       C  0.25275415  0.20041738  0.11910469    -0.19700
C1774       C  0.24086395  0.22083589  0.12390419     0.20600
C1775       C  0.24624176  0.23352010  0.14399123    -0.32700
C1776       C  0.23330080  0.25325998  0.14923915     0.01300
C1777       C  0.21570966  0.26084791  0.13360921    -0.24000
C1778       C  0.19380656  0.21079776  0.05304253    -0.28600
C1779       C  0.20682091  0.19119471  0.04758502     0.07000
C1780       C  0.22368251  0.18293316  0.06375897    -0.27300
H1781       H  0.17294274  0.24949810  0.06682038     0.11700
H1782       H  0.18272370  0.27145877  0.10164094     0.12800
H1783       H  0.25643434  0.17203382  0.09604831     0.11900
H1784       H  0.26662870  0.19431062  0.13059155     0.11200
H1785       H  0.25936024  0.22725665  0.15626327     0.16500
H1786       H  0.20545384  0.27587361  0.13776182     0.12500
H1787       H  0.18109868  0.21748579  0.04057731     0.15300
H1788       H  0.23378384  0.16778686  0.05973462     0.15100
C1789       C  0.19293297  0.14161182  0.14517118    -0.17800
C1790       C  0.19464139  0.16361289  0.15444034    -0.20000
C1791       C  0.19069457  0.16710796  0.17832827     0.20700
C1792       C  0.18370971  0.14845046  0.19275789    -0.02900
C1793       C  0.18144346  0.12632675  0.18327042    -0.06000
C1794       C  0.18692789  0.12276560  0.15955364     0.21000
C1795       C  0.17547236  0.10751776  0.19792959     0.19100
C1796       C  0.17066480  0.11114873  0.22161602    -0.17400
C1797       C  0.17322567  0.13297553  0.23106581    -0.19700
C1798       C  0.18038115  0.15160706  0.21693612     0.20600
C1799       C  0.18529424  0.17305270  0.22670734    -0.32700
C1800       C  0.19289280  0.19153478  0.21252556     0.01300
C1801       C  0.19474914  0.18864396  0.18824558    -0.24000
C1802       C  0.18834494  0.10028297  0.15122343    -0.28600
C1803       C  0.18428511  0.08143185  0.16629396     0.07000
C1804       C  0.17655988  0.08522195  0.18920764    -0.27300
H1805       H  0.19710073  0.13922914  0.12691064     0.11700
H1806       H  0.19996669  0.17774838  0.14309548     0.12800
H1807       H  0.16595000  0.09690979  0.23307646     0.11900
H1808       H  0.17031718  0.13513667  0.24959302     0.11200
H1809       H  0.18364407  0.17529261  0.24539079     0.16500
H1810       H  0.20072254  0.20283465  0.17727488     0.12500
H1811       H  0.19486548  0.09736571  0.13372808     0.15300
H1812       H  0.17412152  0.07070167  0.20102113     0.15100
C1813       C  0.94474504  0.10299660  0.14892366    -0.17800
C1814       C  0.94408669  0.11675399  0.16874637    -0.20000
C1815       C  0.95770266  0.13689503  0.16985169     0.20700
C1816       C  0.97189853  0.14337035  0.15061079    -0.02900
C1817       C  0.97229277  0.12959543  0.13035129    -0.06000
C1818       C  0.95886557  0.10917540  0.12965314     0.21000
C1819       C  0.98636447  0.13607267  0.11097707     0.19100
C1820       C  0.00004696  0.15618071  0.11217939    -0.17400
C1821       C  0.99998126  0.16956636  0.13236696    -0.19700
C1822       C  0.98601346  0.16333991  0.15177376     0.20600
C1823       C  0.98627986  0.17639007  0.17243770    -0.32700
C1824       C  0.97231190  0.16993334  0.19191552     0.01300
C1825       C  0.95780662  0.15026722  0.19011229    -0.24000
C1826       C  0.95998649  0.09514956  0.10986976    -0.28600
C1827       C  0.97389965  0.10142604  0.09034551     0.07000
C1828       C  0.98678353  0.12216844  0.09096472    -0.27300
H1829       H  0.93425139  0.08743274  0.14871480     0.11700
H1830       H  0.93311463  0.11146063  0.18337755     0.12800
H1831       H  0.01105474  0.16144429  0.09756641     0.11900
H1832       H  0.01097410  0.18478685  0.13282273     0.11200
H1833       H  0.99755568  0.19136215  0.17347238     0.16500
H1834       H  0.94736506  0.14469119  0.20501232     0.12500
H1835       H  0.94990682  0.07931782  0.10960754     0.15300
H1836       H  0.99773500  0.12709196  0.07618125     0.15100
C1837       C  0.87515393  0.24666493  0.21106823    -0.17800
C1838       C  0.89557675  0.23460931  0.20520593    -0.20000
C1839       C  0.90248187  0.21528748  0.21833988     0.20700
C1840       C  0.88807993  0.20767757  0.23714004    -0.02900
C1841       C  0.86759153  0.22005915  0.24328171    -0.06000
C1842       C  0.86129473  0.23975365  0.23028111     0.21000
C1843       C  0.85359927  0.21289879  0.26255638     0.19100
C1844       C  0.85998610  0.19304139  0.27511697    -0.17400
C1845       C  0.88029492  0.18084050  0.26909337    -0.19700
C1846       C  0.89462127  0.18820989  0.25035600     0.20600
C1847       C  0.91612892  0.17734577  0.24559867    -0.32700
C1848       C  0.93182116  0.18618698  0.22847944     0.01300
C1849       C  0.92424824  0.20441825  0.21403494    -0.24000
C1850       C  0.84106147  0.25202460  0.23644821    -0.28600
C1851       C  0.82680864  0.24500900  0.25545057     0.07000
C1852       C  0.83332871  0.22549961  0.26862643    -0.27300
H1853       H  0.87037300  0.26163414  0.20074120     0.11700
H1854       H  0.90623518  0.24068867  0.19065497     0.12800
H1855       H  0.84942368  0.18707854  0.28978797     0.11900
H1856       H  0.88508569  0.16588772  0.27944026     0.11200
H1857       H  0.92176771  0.16326385  0.25679259     0.16500
H1858       H  0.93620850  0.21153919  0.20101742     0.12500
H1859       H  0.83588058  0.26676468  0.22593126     0.15300
H1860       H  0.82204024  0.21951372  0.28276303     0.15100
C1861       C  0.10042163  0.19077758  0.24623459    -0.17800
C1862       C  0.07999691  0.17889367  0.23950164    -0.20000
C1863       C  0.06047852  0.19069972  0.23026664     0.20700
C1864       C  0.06179865  0.21470552  0.22736347    -0.02900
C1865       C  0.08236827  0.22677018  0.23442862    -0.06000
C1866       C  0.10171790  0.21475760  0.24404476     0.21000
C1867       C  0.08349479  0.25085278  0.23199515     0.19100
C1868       C  0.06411203  0.26258308  0.22240626    -0.17400
C1869       C  0.04368809  0.25069100  0.21570146    -0.19700
C1870       C  0.04222874  0.22676486  0.21826331     0.20600
C1871       C  0.02101673  0.21493696  0.21349029    -0.32700
C1872       C  0.01886592  0.19129175  0.21832448     0.01300
C1873       C  0.03913676  0.17915673  0.22549395    -0.24000
C1874       C  0.12212983  0.22689208  0.25089711    -0.28600
C1875       C  0.12352251  0.25091205  0.24829716     0.07000
C1876       C  0.10409522  0.26272769  0.23878775    -0.27300
H1877       H  0.11513626  0.18120480  0.25340106     0.11700
H1878       H  0.07932162  0.16046332  0.24190379     0.12800
H1879       H  0.06464490  0.28104380  0.22030373     0.11900
H1880       H  0.02884823  0.26028966  0.20884635     0.11200
H1881       H  0.00537949  0.22455876  0.20872318     0.16500
H1882       H  0.03748409  0.16109768  0.22992143     0.12500
H1883       H  0.13735979  0.21757684  0.25735473     0.15300
H1884       H  0.10535995  0.28108808  0.23595750     0.15100
C1885       C  0.77984189  0.93222902  0.22685929    -0.17800
C1886       C  0.78482240  0.95289594  0.21507562    -0.20000
C1887       C  0.76931809  0.96151214  0.19800573     0.20700
C1888       C  0.74869033  0.94891245  0.19260972    -0.02900
C1889       C  0.74347661  0.92818753  0.20475547    -0.06000
C1890       C  0.75914982  0.91986127  0.22196099     0.21000
C1891       C  0.72258330  0.91585305  0.19972067     0.19100
C1892       C  0.70733306  0.92418276  0.18229143    -0.17400
C1893       C  0.71246152  0.94471548  0.17031528    -0.19700
C1894       C  0.73296940  0.95729966  0.17550132     0.20600
C1895       C  0.73742659  0.97864577  0.16469595    -0.32700
C1896       C  0.75707330  0.99213746  0.17111345     0.01300
C1897       C  0.77345712  0.98300186  0.18712226    -0.24000
C1898       C  0.75410607  0.89909996  0.23364470    -0.28600
C1899       C  0.73348013  0.88655508  0.22858383     0.07000
C1900       C  0.71758840  0.89521212  0.21184806    -0.27300
H1901       H  0.79212117  0.92599382  0.23995891     0.11700
H1902       H  0.80071378  0.96227115  0.21949763     0.12800
H1903       H  0.69135038  0.91488302  0.17800556     0.11900
H1904       H  0.70018614  0.95093148  0.15720366     0.11200
H1905       H  0.72466024  0.98554659  0.15240471     0.16500
H1906       H  0.78836742  0.99336056  0.19249973     0.12500
H1907       H  0.76659901  0.89228343  0.24626845     0.15300
H1908       H  0.70205281  0.88527902  0.20738542     0.15100
C1909       C  0.78150980  0.10415383  0.22933402    -0.17800
C1910       C  0.77704452  0.12583125  0.23835971    -0.20000
C1911       C  0.77258057  0.14453993  0.22336073     0.20700
C1912       C  0.77372618  0.14160726  0.19898133    -0.02900
C1913       C  0.77783498  0.11958243  0.18984321    -0.06000
C1914       C  0.78128215  0.10071294  0.20514155     0.21000
C1915       C  0.77684383  0.11617634  0.16551559     0.19100
C1916       C  0.77376531  0.13517241  0.15049119    -0.17400
C1917       C  0.77058466  0.15712252  0.15953832    -0.19700
C1918       C  0.76963607  0.16041498  0.18376108     0.20600
C1919       C  0.76380534  0.18189702  0.19304199    -0.32700
C1920       C  0.76129083  0.18457414  0.21735525     0.01300
C1921       C  0.76615378  0.16587325  0.23234045    -0.24000
C1922       C  0.78225734  0.07849388  0.19615536    -0.28600
C1923       C  0.77840412  0.07474473  0.17227508     0.07000
C1924       C  0.77697193  0.09371144  0.15688102    -0.27300
H1925       H  0.78414200  0.08986996  0.24133348     0.11700
H1926       H  0.77647159  0.12783201  0.25712218     0.12800
H1927       H  0.77324071  0.13298522  0.13174893     0.11900
H1928       H  0.76819289  0.17143871  0.14758974     0.11200
H1929       H  0.76003978  0.19618562  0.18133391     0.16500
H1930       H  0.76458166  0.16786462  0.25106268     0.12500
H1931       H  0.78274996  0.06391071  0.20810880     0.15300
H1932       H  0.77348476  0.09088302  0.13853819     0.15100
C1933       C  0.88075529  0.04581342  0.13779079    -0.17800
C1934       C  0.86067658  0.04672487  0.15214824    -0.20000
C1935       C  0.83941274  0.03616915  0.14547265     0.20700
C1936       C  0.83852583  0.02449287  0.12408590    -0.02900
C1937       C  0.85871672  0.02384529  0.10942376    -0.06000
C1938       C  0.87998597  0.03449438  0.11631545     0.21000
C1939       C  0.85743805  0.01291466  0.08766008     0.19100
C1940       C  0.83620772  0.00243782  0.08089955    -0.17400
C1941       C  0.81637299  0.00286801  0.09546702    -0.19700
C1942       C  0.81729872  0.01390359  0.11704765     0.20600
C1943       C  0.79713432  0.01515047  0.13129306    -0.32700
C1944       C  0.79749981  0.02735604  0.15231347     0.01300
C1945       C  0.81887797  0.03761789  0.15940342    -0.24000
C1946       C  0.89986907  0.03404831  0.10139614    -0.28600
C1947       C  0.89854848  0.02361837  0.07934989     0.07000
C1948       C  0.87721383  0.01298597  0.07280501    -0.27300
H1949       H  0.89683416  0.05423337  0.14337200     0.11700
H1950       H  0.86174513  0.05585528  0.16843317     0.12800
H1951       H  0.83488347  0.99401664  0.06422749     0.11900
H1952       H  0.80017629  0.99479560  0.08969540     0.11200
H1953       H  0.78068610  0.00765493  0.12539835     0.16500
H1954       H  0.81935557  0.04712025  0.17547797     0.12500
H1955       H  0.91607524  0.04251295  0.10657377     0.15300
H1956       H  0.87594781  0.00481561  0.05598234     0.15100
C1957       C  0.10539921  0.78230649  0.15345849    -0.17800
C1958       C  0.08425141  0.78849107  0.14244684    -0.20000
C1959       C  0.06634761  0.79948267  0.15491113     0.20700
C1960       C  0.06994164  0.80467038  0.17861010    -0.02900
C1961       C  0.09124636  0.79828840  0.18978046    -0.06000
C1962       C  0.10899989  0.78690137  0.17717835     0.21000
C1963       C  0.09471653  0.80319986  0.21357688     0.19100
C1964       C  0.07696207  0.81450134  0.22593716    -0.17400
C1965       C  0.05571876  0.82046988  0.21497959    -0.19700
C1966       C  0.05191722  0.81546089  0.19137975     0.20600
C1967       C  0.02991802  0.81967310  0.18076090    -0.32700
C1968       C  0.02571213  0.81311074  0.15759378     0.01300
C1969       C  0.04438742  0.80402330  0.14451015    -0.24000
C1970       C  0.13018114  0.78073519  0.18841303    -0.28600
C1971       C  0.13383365  0.78593107  0.21201412     0.07000
C1972       C  0.11604679  0.79712809  0.22446656    -0.27300
H1973       H  0.11886635  0.77373845  0.14345758     0.11700
H1974       H  0.08173790  0.78432043  0.12424892     0.12800
H1975       H  0.07940197  0.81850512  0.24418572     0.11900
H1976       H  0.04211238  0.82872064  0.22507547     0.11200
H1977       H  0.01541742  0.82603445  0.19112918     0.16500
H1978       H  0.04101892  0.79839545  0.12686309     0.12500
H1979       H  0.14428050  0.77294551  0.17855208     0.15300
H1980       H  0.11922716  0.80183616  0.24243703     0.15100
C1981       C  0.86129048  0.77272499  0.16099501    -0.17800
C1982       C  0.88173248  0.77924213  0.14883235    -0.20000
C1983       C  0.89879794  0.79323526  0.15933290     0.20700
C1984       C  0.89489982  0.80142336  0.18200510    -0.02900
C1985       C  0.87426083  0.79477635  0.19432850    -0.06000
C1986       C  0.85754095  0.78006964  0.18388639     0.21000
C1987       C  0.87047855  0.80265989  0.21714406     0.19100
C1988       C  0.88716045  0.81733914  0.22731310    -0.17400
C1989       C  0.90779235  0.82361450  0.21524730    -0.19700
C1990       C  0.91203752  0.81550002  0.19269447     0.20600
C1991       C  0.93369749  0.81990066  0.18127203    -0.32700
C1992       C  0.93840398  0.81006432  0.15952436     0.01300
C1993       C  0.92035302  0.79788212  0.14816311    -0.24000
C1994       C  0.83716811  0.77333892  0.19631901    -0.28600
C1995       C  0.83309967  0.78145195  0.21888902     0.07000
C1996       C  0.84988118  0.79605629  0.22919440    -0.27300
H1997       H  0.84850698  0.76174960  0.15255993     0.11700
H1998       H  0.88443846  0.77291417  0.13136352     0.12800
H1999       H  0.88440587  0.82372386  0.24475430     0.11900
H2000       H  0.92063493  0.83448600  0.22373590     0.11200
H2001       H  0.94764380  0.82900639  0.19024289     0.16500
H2002       H  0.92400619  0.79016145  0.13145960     0.12500
H2003       H  0.82383550  0.76289914  0.18796133     0.15300
H2004       H  0.84643740  0.80289091  0.24635050     0.15100
C2005       C  0.01984762  0.91604830  0.11816926    -0.17800
C2006       C  0.01937918  0.89570649  0.13156364    -0.20000
C2007       C  0.99973480  0.88090520  0.13089899     0.20700
C2008       C  0.98040863  0.88677249  0.11653472    -0.02900
C2009       C  0.98086772  0.90730342  0.10297151    -0.06000
C2010       C  0.00065263  0.92209255  0.10386043     0.21000
C2011       C  0.96164860  0.91284533  0.08828138     0.19100
C2012       C  0.94212464  0.89799284  0.08741535    -0.17400
C2013       C  0.94167538  0.87776448  0.10084705    -0.19700
C2014       C  0.96077054  0.87193827  0.11536825     0.20600
C2015       C  0.96082239  0.85112837  0.12802724    -0.32700
C2016       C  0.98021991  0.84454857  0.14213026     0.01300
C2017       C  0.99938318  0.86009045  0.14380913    -0.24000
C2018       C  0.00093658  0.94247555  0.09026190    -0.28600
C2019       C  0.98183119  0.94797658  0.07554197     0.07000
C2020       C  0.96237265  0.93299331  0.07453587    -0.27300
H2021       H  0.03529066  0.92703199  0.11895405     0.11700
H2022       H  0.03451083  0.89145506  0.14231871     0.12800
H2023       H  0.92722217  0.90196195  0.07623721     0.11900
H2024       H  0.92644397  0.86653722  0.09969381     0.11200
H2025       H  0.94612861  0.83952483  0.12567526     0.16500
H2026       H  0.01436299  0.85595053  0.15465182     0.12500
H2027       H  0.01618843  0.95375458  0.09066004     0.15300
H2028       H  0.94779822  0.93705557  0.06293966     0.15100
C2029       C  0.16058302  0.94787079  0.78132895    -0.17800
C2030       C  0.16400554  0.92592188  0.77260689    -0.20000
C2031       C  0.17561070  0.90920554  0.78610634     0.20700
C2032       C  0.18260067  0.91420589  0.80916046    -0.02900
C2033       C  0.17960153  0.93650363  0.81777455    -0.06000
C2034       C  0.16906001  0.95353333  0.80352687     0.21000
C2035       C  0.18883942  0.94220498  0.83984711     0.19100
C2036       C  0.19916048  0.92506793  0.85390471    -0.17400
C2037       C  0.20142739  0.90274308  0.84567862    -0.19700
C2038       C  0.19391962  0.89736069  0.82305368     0.20600
C2039       C  0.19862783  0.87585475  0.81360350    -0.32700
C2040       C  0.19318226  0.87148198  0.79017125     0.01300
C2041       C  0.18131684  0.88795980  0.77662200    -0.24000
C2042       C  0.16923454  0.97633665  0.81074637    -0.28600
C2043       C  0.18074684  0.98243539  0.83142776     0.07000
C2044       C  0.18946584  0.96525471  0.84648674    -0.27300
H2045       H  0.15234034  0.96073472  0.77025183     0.11700
H2046       H  0.15823544  0.92223863  0.75502142     0.12800
H2047       H  0.20618305  0.92910071  0.87095488     0.11900
H2048       H  0.20999921  0.88995658  0.85661525     0.11200
H2049       H  0.20777172  0.86298394  0.82398696     0.16500
H2050       H  0.17692010  0.88433251  0.75862335     0.12500
H2051       H  0.16310329  0.98970879  0.79890677     0.15300
H2052       H  0.19889178  0.97007892  0.86214949     0.15100
C2053       C  0.15765379  0.11211766  0.81251264    -0.17800
C2054       C  0.15994547  0.13486034  0.80458784    -0.20000
C2055       C  0.18111229  0.14700240  0.80794437     0.20700
C2056       C  0.19981309  0.13637190  0.82024451    -0.02900
C2057       C  0.19743570  0.11353922  0.82837284    -0.06000
C2058       C  0.17647301  0.10112702  0.82396548     0.21000
C2059       C  0.21664048  0.10268738  0.83956852     0.19100
C2060       C  0.23759020  0.11492074  0.84348708    -0.17400
C2061       C  0.23996285  0.13747075  0.83540391    -0.19700
C2062       C  0.22139301  0.14812606  0.82336070     0.20600
C2063       C  0.22444118  0.16996328  0.81350954    -0.32700
C2064       C  0.20624591  0.18034016  0.80068835     0.01300
C2065       C  0.18435896  0.16917140  0.79842166    -0.24000
C2066       C  0.17550005  0.07754412  0.82938231    -0.28600
C2067       C  0.19543827  0.06640167  0.83862042     0.07000
C2068       C  0.21532347  0.07930307  0.84494008    -0.27300
H2069       H  0.14142925  0.10288963  0.80900327     0.11700
H2070       H  0.14540219  0.14272778  0.79522647     0.12800
H2071       H  0.25246590  0.10677020  0.85204184     0.11900
H2072       H  0.25657341  0.14636319  0.83798384     0.11200
H2073       H  0.24125927  0.17874981  0.81526017     0.16500
H2074       H  0.17041265  0.17722734  0.78832544     0.12500
H2075       H  0.16024311  0.06753053  0.82425958     0.15300
H2076       H  0.23067253  0.07063644  0.85205465     0.15100
C2077       C  0.07851726  0.01691666  0.87291962    -0.17800
C2078       C  0.09785710  0.01401611  0.85801663    -0.20000
C2079       C  0.12049718  0.02131869  0.86465652     0.20700
C2080       C  0.12364221  0.03155290  0.88663578    -0.02900
C2081       C  0.10417879  0.03415342  0.90182405    -0.06000
C2082       C  0.08147318  0.02693479  0.89486567     0.21000
C2083       C  0.10748033  0.04389074  0.92398815     0.19100
C2084       C  0.13010733  0.05122904  0.93064258    -0.17400
C2085       C  0.14927932  0.04904315  0.91545251    -0.19700
C2086       C  0.14623399  0.03920692  0.89346021     0.20600
C2087       C  0.16538415  0.03689757  0.87819129    -0.32700
C2088       C  0.16244241  0.02670714  0.85632193     0.01300
C2089       C  0.14000545  0.01873847  0.84970863    -0.24000
C2090       C  0.06219640  0.02959291  0.91006382    -0.28600
C2091       C  0.06537014  0.03889526  0.93240673     0.07000
C2092       C  0.08815983  0.04598264  0.93917537    -0.27300
H2093       H  0.06123103  0.01122855  0.86730634     0.11700
H2094       H  0.09507475  0.00614900  0.84123055     0.12800
H2095       H  0.13297027  0.05874452  0.94758761     0.11900
H2096       H  0.16653113  0.05496877  0.92095261     0.11200
H2097       H  0.18275659  0.04281963  0.88333963     0.21500
H2098       H  0.13770768  0.01103617  0.83277800     0.12500
H2099       H  0.04484569  0.02374643  0.90476110     0.15300
H2100       H  0.09089758  0.05311125  0.95633003     0.15100
C2101       C  0.91926576  0.82383853  0.80140573    -0.17800
C2102       C  0.89786751  0.81196087  0.79951377    -0.20000
C2103       C  0.87661641  0.82387655  0.79656078     0.20700
C2104       C  0.87685771  0.84807365  0.79617297    -0.02900
C2105       C  0.89854450  0.86008186  0.79769400    -0.06000
C2106       C  0.91984060  0.84784256  0.80010676     0.21000
C2107       C  0.89903807  0.88420746  0.79549216     0.19100
C2108       C  0.87769701  0.89615025  0.79302561    -0.17400
C2109       C  0.85614938  0.88428263  0.79207946    -0.19700
C2110       C  0.85557605  0.86023127  0.79324096     0.20600
C2111       C  0.83425581  0.84809338  0.79061473    -0.32700
C2112       C  0.83405154  0.82396935  0.78999059     0.01300
C2113       C  0.85527869  0.81200628  0.79319372    -0.24000
C2114       C  0.94145100  0.85966047  0.79951521    -0.28600
C2115       C  0.94217687  0.88343397  0.79551718     0.07000
C2116       C  0.92091311  0.89573512  0.79421336    -0.27300
H2117       H  0.93547516  0.81420226  0.80314710     0.11700
H2118       H  0.89799619  0.79341030  0.79992751     0.12800
H2119       H  0.87770082  0.91465367  0.79131957     0.11900
H2120       H  0.83998585  0.89390023  0.78975780     0.11200
H2121       H  0.81798008  0.85743803  0.78781552     0.16500
H2122       H  0.85520208  0.79345421  0.79273549     0.12500
H2123       H  0.95781079  0.85009564  0.79977142     0.15300
H2124       H  0.92145977  0.91399861  0.79054371     0.15100
C2125       C  0.09409105  0.86173324  0.72857876    -0.17800
C2126       C  0.07504076  0.87595785  0.73378185    -0.20000
C2127       C  0.06023169  0.87094455  0.75287221     0.20700
C2128       C  0.06468509  0.85142136  0.76692120    -0.02900
C2129       C  0.08405927  0.83708241  0.76172692    -0.06000
C2130       C  0.09879609  0.84223630  0.74240522     0.21000
C2131       C  0.08886439  0.81780832  0.77603442     0.19100
C2132       C  0.07393473  0.81274517  0.79506231    -0.17400
C2133       C  0.05447104  0.82666200  0.79989876    -0.19700
C2134       C  0.04971509  0.84614782  0.78603246     0.20600
C2135       C  0.02991572  0.86003308  0.79046329    -0.32700
C2136       C  0.02489811  0.87910838  0.77596608     0.01300
C2137       C  0.04065200  0.88475085  0.75767058    -0.24000
C2138       C  0.11839739  0.82827126  0.73767904    -0.28600
C2139       C  0.12391920  0.80956613  0.75240539     0.07000
C2140       C  0.10887891  0.80436726  0.77145433    -0.27300
H2141       H  0.10524691  0.86607284  0.71377815     0.11700
H2142       H  0.07180414  0.89085221  0.72275271     0.12800
H2143       H  0.07731582  0.79798901  0.80623924     0.11900
H2144       H  0.04316775  0.82220797  0.81455763     0.11200
H2145       H  0.01770731  0.85522659  0.80428927     0.16500
H2146       H  0.03697723  0.89936015  0.74636584     0.12500
H2147       H  0.13023681  0.83283791  0.72345812     0.15300
H2148       H  0.11324406  0.79025175  0.78316688     0.15100
C2149       C  0.97026911  0.90798053  0.89964647    -0.17800
C2150       C  0.97012854  0.89513402  0.87914824    -0.20000
C2151       C  0.98211208  0.90300785  0.85907416     0.20700
C2152       C  0.99490564  0.92378852  0.85993580    -0.02900
C2153       C  0.99478787  0.93693311  0.88055809    -0.06000
C2154       C  0.98223239  0.92909122  0.90046526     0.21000
C2155       C  0.00661317  0.95824869  0.88097987     0.19100
C2156       C  0.01920234  0.96581424  0.86117222    -0.17400
C2157       C  0.01948171  0.95274532  0.84087353    -0.19700
C2158       C  0.00708291  0.93188152  0.83992880     0.20600
C2159       C  0.00573831  0.91955160  0.81903597    -0.32700
C2160       C  0.99195823  0.89941659  0.81758768     0.01300
C2161       C  0.98068461  0.89100492  0.83792715    -0.24000
C2162       C  0.98129827  0.94278420  0.92053814    -0.28600
C2163       C  0.99222332  0.96453056  0.92072002     0.07000
C2164       C  0.00512541  0.97191561  0.90092481    -0.27300
H2165       H  0.96056710  0.90161681  0.91472806     0.11700
H2166       H  0.96027282  0.87919248  0.87887779     0.12800
H2167       H  0.02849449  0.98206927  0.86122753     0.11900
H2168       H  0.02896626  0.95923570  0.82571140     0.11200
H2169       H  0.01411372  0.92645035  0.80341532     0.16500
H2170       H  0.97003473  0.87560400  0.83703038     0.12500
H2171       H  0.97128033  0.93694300  0.93564241     0.15300
H2172       H  0.01386905  0.98847631  0.90097553     0.15100
C2173       C  0.85741057  0.18685182  0.75111786    -0.17800
C2174       C  0.87736659  0.17418228  0.75756269    -0.20000
C2175       C  0.89641140  0.18470144  0.76896092     0.20700
C2176       C  0.89508717  0.20810149  0.77444087    -0.02900
C2177       C  0.87479869  0.22089934  0.76805198    -0.06000
C2178       C  0.85602412  0.21028017  0.75603467     0.21000
C2179       C  0.87330989  0.24428008  0.77367420     0.19100
C2180       C  0.89216285  0.25461793  0.78559127    -0.17400
C2181       C  0.91249028  0.24210044  0.79136737    -0.19700
C2182       C  0.91425609  0.21884920  0.78574894     0.20600
C2183       C  0.93519010  0.20646761  0.79020271    -0.32700
C2184       C  0.93709749  0.18342803  0.78358274     0.01300
C2185       C  0.91717353  0.17249296  0.77391668    -0.24000
C2186       C  0.83598880  0.22311536  0.74959509    -0.28600
C2187       C  0.83414312  0.24635397  0.75539621     0.07000
C2188       C  0.85284044  0.25674126  0.76765973    -0.27300
H2189       H  0.84306943  0.17831746  0.74219056     0.11700
H2190       H  0.87806710  0.15620121  0.75326019     0.12800
H2191       H  0.89132274  0.27251260  0.79019460     0.11900
H2192       H  0.92693622  0.25068435  0.80007950     0.11200
H2193       H  0.95048305  0.21514010  0.79731334     0.16500
H2194       H  0.91849384  0.15479108  0.76865733     0.12500
H2195       H  0.82120374  0.21470830  0.74121757     0.15300
H2196       H  0.85111042  0.27434856  0.77309089     0.15100
C2197       C  0.07989218  0.17076772  0.74807451    -0.17800
C2198       C  0.10045226  0.18254241  0.74128151    -0.20000
C2199       C  0.10475426  0.20490890  0.74887320     0.20700
C2200       C  0.08818686  0.21535498  0.76374338    -0.02900
C2201       C  0.06723454  0.20353068  0.77040181    -0.06000
C2202       C  0.06308003  0.18119153  0.76242182     0.21000
C2203       C  0.05026293  0.21421966  0.78463426     0.19100
C2204       C  0.05492467  0.23634220  0.79278609    -0.17400
C2205       C  0.07594128  0.24780432  0.78672165    -0.19700
C2206       C  0.09257520  0.23756711  0.77202146     0.20600
C2207       C  0.11375081  0.24890100  0.76590635    -0.32700
C2208       C  0.13043650  0.23860511  0.75115984     0.01300
C2209       C  0.12560364  0.21672737  0.74240820    -0.24000
C2210       C  0.04173564  0.17003272  0.76801231    -0.28600
C2211       C  0.02379752  0.18116375  0.78059720     0.07000
C2212       C  0.02857729  0.20302266  0.78956743    -0.27300
H2213       H  0.07695086  0.15359822  0.74176247     0.11700
H2214       H  0.11300844  0.17412751  0.73006889     0.12800
H2215       H  0.04223549  0.24486171  0.80376405     0.11900
H2216       H  0.07908010  0.26481538  0.79336533     0.11200
H2217       H  0.11769190  0.26549049  0.77324820     0.16500
H2218       H  0.13873400  0.20835781  0.73179131     0.12500
H2219       H  0.03838690  0.15312409  0.76116424     0.15300
H2220       H  0.01492080  0.21185751  0.79907333     0.15100
C2221       C  0.02419834  0.13560427  0.88531988    -0.17800
C2222       C  0.02420971  0.14699549  0.86360210    -0.20000
C2223       C  0.00305391  0.15494398  0.85365348     0.20700
C2224       C  0.98184026  0.15220585  0.86624881    -0.02900
C2225       C  0.98181915  0.14080577  0.88838051    -0.06000
C2226       C  0.00305516  0.13203105  0.89766980     0.21000
C2227       C  0.96043951  0.13723213  0.90064838     0.19100
C2228       C  0.93941238  0.14580531  0.89094477    -0.17400
C2229       C  0.93945689  0.15699035  0.86903438    -0.19700
C2230       C  0.96053729  0.15992202  0.85630104     0.20600
C2231       C  0.96045459  0.16940418  0.83341996    -0.32700
C2232       C  0.98139599  0.17111942  0.81980107     0.01300
C2233       C  0.00273039  0.16443069  0.83086015    -0.24000
C2234       C  0.00265905  0.11890851  0.91852760    -0.28600
C2235       C  0.98137359  0.11451639  0.93050771     0.07000
C2236       C  0.96035607  0.12421903  0.92173190    -0.27300
H2237       H  0.04070443  0.12909987  0.89220868     0.11700
H2238       H  0.04074231  0.14900621  0.85426321     0.12800
H2239       H  0.92279684  0.14334936  0.90003285     0.11900
H2240       H  0.92285329  0.16285615  0.86178317     0.11200
H2241       H  0.94367936  0.17429052  0.82612830     0.16500
H2242       H  0.01918951  0.16509561  0.82145672     0.12500
H2243       H  0.01880588  0.11114088  0.92491880     0.15300
H2244       H  0.94380482  0.12048635  0.93053285     0.15100
C2245       C  0.82803942  0.94262838  0.74271331    -0.17800
C2246       C  0.81724448  0.92168261  0.73746050    -0.20000
C2247       C  0.79816518  0.91339443  0.75082954     0.20700
C2248       C  0.79036468  0.92619684  0.77009616    -0.02900
C2249       C  0.80124081  0.94740994  0.77537479    -0.06000
C2250       C  0.81995171  0.95574811  0.76140933     0.21000
C2251       C  0.79294549  0.96055911  0.79418664     0.19100
C2252       C  0.77438869  0.95191507  0.80803664    -0.17400
C2253       C  0.76388027  0.93076905  0.80304709    -0.19700
C2254       C  0.77153070  0.91794512  0.78395326     0.20600
C2255       C  0.76076510  0.89694893  0.77861213    -0.32700
C2256       C  0.76824571  0.88402780  0.75939115     0.01300
C2257       C  0.78692377  0.89247677  0.74545758    -0.24000
C2258       C  0.82950423  0.97752364  0.76564706    -0.28600
C2259       C  0.82026657  0.99150172  0.78326517     0.07000
C2260       C  0.80257172  0.98252112  0.79808446    -0.27300
H2261       H  0.84245583  0.94878928  0.73184099     0.11700
H2262       H  0.82369111  0.91206621  0.72277626     0.12800
H2263       H  0.76777956  0.96165018  0.82256897     0.11900
H2264       H  0.74951882  0.92457334  0.81397050     0.11200
H2265       H  0.74667627  0.89039762  0.78970512     0.16500
H2266       H  0.79332607  0.88234078  0.73111141     0.12500
H2267       H  0.84328362  0.98420341  0.75426462     0.15300
H2268       H  0.79516413  0.99319019  0.81152337     0.15100
C2269       C  0.82488529  0.15694077  0.80126976    -0.17800
C2270       C  0.83497828  0.13517305  0.80367394    -0.20000
C2271       C  0.82083883  0.11536674  0.80270942     0.20700
C2272       C  0.79618611  0.11761778  0.79983167    -0.02900
C2273       C  0.78609945  0.13955267  0.79672185    -0.06000
C2274       C  0.80053033  0.15930555  0.79742541     0.21000
C2275       C  0.76173348  0.14163320  0.79200152     0.19100
C2276       C  0.74755440  0.12188455  0.79121593    -0.17400
C2277       C  0.75744564  0.10022464  0.79474843    -0.19700
C2278       C  0.78174650  0.09789658  0.79878219     0.20600
C2279       C  0.79204184  0.07614504  0.80001765    -0.32700
C2280       C  0.81667097  0.07376025  0.80078633     0.01300
C2281       C  0.83098565  0.09338741  0.80287278    -0.24000
C2282       C  0.79049102  0.18098710  0.79349015    -0.28600
C2283       C  0.76634848  0.18313371  0.78807215     0.07000
C2284       C  0.75208062  0.16334799  0.78751679    -0.27300
H2285       H  0.83624199  0.17191798  0.80177035     0.11700
H2286       H  0.85392011  0.13382722  0.80583863     0.12800
H2287       H  0.72884137  0.12316534  0.78755498     0.11900
H2288       H  0.74618312  0.08522764  0.79362574     0.11200
H2289       H  0.78110265  0.06105996  0.79762336     0.16500
H2290       H  0.85002260  0.09160669  0.80278608     0.12500
H2291       H  0.80168347  0.19610608  0.79360249     0.15300
H2292       H  0.73347387  0.16484176  0.78336574     0.15100
C2293       C  0.83404031  0.04989956  0.88415999    -0.17800
C2294       C  0.84841664  0.05038013  0.90412468    -0.20000
C2295       C  0.86994732  0.03853957  0.90475590     0.20700
C2296       C  0.87651355  0.02533304  0.88538783    -0.02900
C2297       C  0.86178940  0.02449624  0.86544595    -0.06000
C2298       C  0.84076264  0.03734616  0.86452150     0.21000
C2299       C  0.86865091  0.01152339  0.84605865     0.19100
C2300       C  0.88968746  0.99897492  0.84696656    -0.17400
C2301       C  0.90437297  0.00003703  0.86652055    -0.19700
C2302       C  0.89817665  0.01350611  0.88559758     0.20600
C2303       C  0.91353829  0.01571120  0.90461936    -0.32700
C2304       C  0.90742084  0.02913456  0.92381403     0.01300
C2305       C  0.88530577  0.04006776  0.92407301    -0.24000
C2306       C  0.82752753  0.03823108  0.84362911    -0.28600
C2307       C  0.83502914  0.02627788  0.82375556     0.07000
C2308       C  0.85510832  0.01225859  0.82559532    -0.27300
H2309       H  0.81787434  0.05972150  0.88391740     0.11700
H2310       H  0.84296236  0.06048380  0.91886086     0.12800
H2311       H  0.89513066  0.98883272  0.83225413     0.11900
H2312       H  0.92080974  0.99063608  0.86654149     0.11200
H2313       H  0.93034623  0.00690646  0.90453530     0.16500
H2314       H  0.88046371  0.05036248  0.93889358     0.12500
H2315       H  0.81201680  0.04894187  0.84249799     0.15300
H2316       H  0.86130200  0.00327136  0.81039229     0.15100
C2317       C  0.20848404  0.88825037  0.12220225    -0.17800
C2318       C  0.20588332  0.89831018  0.10000860    -0.20000
C2319       C  0.19883989  0.88507349  0.08095723     0.20700
C2320       C  0.19330341  0.86167658  0.08454115    -0.02900
C2321       C  0.19629124  0.85142316  0.10690120    -0.06000
C2322       C  0.20430630  0.86472868  0.12570695     0.21000
C2323       C  0.19250351  0.82764894  0.11012111     0.19100
C2324       C  0.18430549  0.81467561  0.09131070    -0.17400
C2325       C  0.18126634  0.82484406  0.06919855    -0.19700
C2326       C  0.18641113  0.84816066  0.06547073     0.20600
C2327       C  0.18669093  0.85771393  0.04278149    -0.32700
C2328       C  0.19404213  0.88049239  0.03890500     0.01300
C2329       C  0.19907765  0.89433651  0.05815669    -0.24000
C2330       C  0.20893679  0.85412988  0.14741384    -0.28600
C2331       C  0.20646537  0.83028904  0.15038864     0.07000
C2332       C  0.19788293  0.81717217  0.13179320    -0.27300
H2333       H  0.21453178  0.89872876  0.13647115     0.11700
H2334       H  0.21012704  0.91630543  0.09760188     0.12800
H2335       H  0.18095939  0.79648901  0.09351409     0.11900
H2336       H  0.17577020  0.81425471  0.05479864     0.11200
H2337       H  0.18356591  0.84679637  0.02794581     0.16500
H2338       H  0.20527967  0.91173453  0.05515655     0.12500
H2339       H  0.21554808  0.86426403  0.16173662     0.15300
H2340       H  0.19566803  0.79883176  0.13415356     0.15100
C2341       C  0.18479105  0.81876827  0.90046532    -0.17800
C2342       C  0.18021875  0.83208596  0.92008239    -0.20000
C2343       C  0.19561959  0.84991326  0.92622503     0.20700
C2344       C  0.21550830  0.85466626  0.91198912    -0.02900
C2345       C  0.22040172  0.84091243  0.89245081    -0.06000
C2346       C  0.20501093  0.82283057  0.88676704     0.21000
C2347       C  0.24076838  0.84516848  0.87873026     0.19100
C2348       C  0.25565526  0.86355242  0.88431998    -0.17400
C2349       C  0.25072237  0.87726141  0.90353480    -0.19700
C2350       C  0.23090242  0.87274397  0.91765302     0.20600
C2351       C  0.22699674  0.88516782  0.93805059    -0.32700
C2352       C  0.20859976  0.87911582  0.95363291     0.01300
C2353       C  0.19226579  0.86218184  0.94699192    -0.24000
C2354       C  0.20987529  0.80938877  0.86725841    -0.28600
C2355       C  0.22999901  0.81362832  0.85325672     0.07000
C2356       C  0.24560191  0.83132275  0.85939487    -0.27300
H2357       H  0.17264248  0.80507529  0.89617506     0.11700
H2358       H  0.16479438  0.82822450  0.93064306     0.12800
H2359       H  0.27120800  0.86726883  0.87389379     0.11900
H2360       H  0.26272770  0.89112075  0.90765858     0.11200
H2361       H  0.23947106  0.89845464  0.94275265     0.16500
H2362       H  0.17812188  0.85727221  0.95882128     0.12500
H2363       H  0.19756530  0.79595827  0.86251743     0.15300
H2364       H  0.26074634  0.83511744  0.84840039     0.15100
C2365       C  0.10980093  0.89358636  0.01901799    -0.17800
C2366       C  0.08944162  0.90703521  0.02069456    -0.20000
C2367       C  0.08793171  0.92817278  0.00875176     0.20700
C2368       C  0.10709115  0.93562051  0.99472113    -0.02900
C2369       C  0.12746005  0.92183725  0.99268743    -0.06000
C2370       C  0.12897155  0.90086466  0.00514874     0.21000
C2371       C  0.14656198  0.92936580  0.97868160     0.19100
C2372       C  0.14508189  0.95044961  0.96667446    -0.17400
C2373       C  0.12510339  0.96421778  0.96893652    -0.19700
C2374       C  0.10611794  0.95704847  0.98305026     0.20600
C2375       C  0.08630687  0.97105655  0.98584979    -0.32700
C2376       C  0.06705172  0.96379011  0.99967123     0.01300
C2377       C  0.06782261  0.94214596  0.01082563    -0.24000
C2378       C  0.14993838  0.88802266  0.00423367    -0.28600
C2379       C  0.16952361  0.89593815  0.99116841     0.07000
C2380       C  0.16724960  0.91625251  0.97777948    -0.27300
H2381       H  0.11064648  0.87757445  0.02878560     0.11700
H2382       H  0.07499495  0.90104033  0.03161930     0.12800
H2383       H  0.15959496  0.95651589  0.95587464     0.11900
H2384       H  0.12458063  0.98058311  0.95977023     0.11200
H2385       H  0.08573687  0.98761899  0.97703155     0.16500
H2386       H  0.05310030  0.93650833  0.02159775     0.12500
H2387       H  0.15127848  0.87230682  0.01434063     0.15300
H2388       H  0.18227494  0.92270932  0.96793783     0.15100
C2389       C  0.75494418  0.26374238  0.09699107    -0.17800
C2390       C  0.76367897  0.25276562  0.07720368    -0.20000
C2391       C  0.76146063  0.22892065  0.07499797     0.20700
C2392       C  0.75058301  0.21603004  0.09311747    -0.02900
C2393       C  0.74113591  0.22719056  0.11276266    -0.06000
C2394       C  0.74338523  0.25116026  0.11474068     0.21000
C2395       C  0.72933898  0.21435675  0.13035421     0.19100
C2396       C  0.72749977  0.19050100  0.12838124    -0.17400
C2397       C  0.73691265  0.17946035  0.10900197    -0.19700
C2398       C  0.74821803  0.19207867  0.09115491     0.20600
C2399       C  0.75542565  0.18138646  0.07058175    -0.32700
C2400       C  0.76394377  0.19438404  0.05148210     0.01300
C2401       C  0.76824487  0.21796082  0.05431740    -0.24000
C2402       C  0.73455135  0.26199245  0.13468682    -0.28600
C2403       C  0.72296117  0.24925792  0.15236959     0.07000
C2404       C  0.72015522  0.22550267  0.14990779    -0.27300
H2405       H  0.75693059  0.28214222  0.09825072     0.11700
H2406       H  0.77189688  0.26298367  0.06346894     0.12800
H2407       H  0.71877873  0.18034272  0.14185560     0.11900
H2408       H  0.73494920  0.16105544  0.10777441     0.11200
H2409       H  0.75147319  0.16337745  0.06823774     0.16500
H2410       H  0.77410097  0.22820005  0.03943204     0.12500
H2411       H  0.73761646  0.28015488  0.13701688     0.15300
H2412       H  0.71226960  0.21549680  0.16402206     0.15100
C2413       C  0.71959639  0.19080773  0.89098058    -0.17800
C2414       C  0.72606246  0.17892911  0.91138767    -0.20000
C2415       C  0.74220630  0.18856257  0.92707900     0.20700
C2416       C  0.75269699  0.20994816  0.92171962    -0.02900
C2417       C  0.74607314  0.22200117  0.90115822    -0.06000
C2418       C  0.72910232  0.21256020  0.88593203     0.21000
C2419       C  0.75611918  0.24364788  0.89605710     0.19100
C2420       C  0.77299480  0.25284839  0.91128509    -0.17400
C2421       C  0.77923171  0.24109364  0.93186248    -0.19700
C2422       C  0.76890224  0.21980498  0.93746264     0.20600
C2423       C  0.77302541  0.20908225  0.95926440    -0.32700
C2424       C  0.76068139  0.18899449  0.96559258     0.01300
C2425       C  0.74658265  0.17806550  0.94883014    -0.24000
C2426       C  0.72216915  0.22489759  0.86580725    -0.28600
C2427       C  0.73226538  0.24636352  0.86054537     0.07000
C2428       C  0.74930456  0.25556708  0.87568883    -0.27300
H2429       H  0.70683134  0.18314267  0.87934298     0.11700
H2430       H  0.71791796  0.16246805  0.91522269     0.12800
H2431       H  0.78104469  0.26936425  0.90750439     0.11900
H2432       H  0.79173288  0.24891318  0.94366813     0.11200
H2433       H  0.78360511  0.21773058  0.97224381     0.16500
H2434       H  0.73690020  0.16266634  0.95377501     0.12500
H2435       H  0.70987265  0.21731746  0.85361179     0.15300
H2436       H  0.75775232  0.27174912  0.87117077     0.15100
C2437       C  0.87595235  0.15986352  0.02896309    -0.17800
C2438       C  0.85554848  0.17353206  0.02915467    -0.20000
C2439       C  0.83438142  0.16586920  0.01899329     0.20700
C2440       C  0.83398457  0.14408488  0.00857685    -0.02900
C2441       C  0.85453045  0.13021052  0.00855627    -0.06000
C2442       C  0.87571092  0.13812323  0.01869679     0.21000
C2443       C  0.85381424  0.10839743  0.99834347     0.19100
C2444       C  0.83275776  0.10064549  0.98816771    -0.17400
C2445       C  0.81258727  0.11434275  0.98806648    -0.19700
C2446       C  0.81301778  0.13605938  0.99818829     0.20600
C2447       C  0.79275342  0.14975989  0.99811911    -0.32700
C2448       C  0.79271450  0.17150787  0.00841550     0.01300
C2449       C  0.81363705  0.17942638  0.01905802    -0.24000
C2450       C  0.89614287  0.12416165  0.01837336    -0.28600
C2451       C  0.89553357  0.10220611  0.00827894     0.07000
C2452       C  0.87409414  0.09463232  0.99839550    -0.27300
H2453       H  0.89195992  0.16632163  0.03690309     0.11700
H2454       H  0.85636004  0.19015965  0.03723728     0.12800
H2455       H  0.83188737  0.08395073  0.98021930     0.11900
H2456       H  0.79659570  0.10791581  0.98005524     0.11200
H2457       H  0.77665331  0.14330005  0.99033650     0.16500
H2458       H  0.81375512  0.19604382  0.02719430     0.12500
H2459       H  0.91236011  0.13024608  0.02621858     0.15300
H2460       H  0.87318260  0.07794645  0.99040941     0.15100
C2461       C  0.76584265  0.83384859  0.07425900    -0.17800
C2462       C  0.75481763  0.83149101  0.09604408    -0.20000
C2463       C  0.76822873  0.82759258  0.11631393     0.20700
C2464       C  0.79310193  0.82713479  0.11473637    -0.02900
C2465       C  0.80424264  0.82937013  0.09269464    -0.06000
C2466       C  0.79047479  0.83225755  0.07232854     0.21000
C2467       C  0.82899147  0.82716947  0.09089291     0.19100
C2468       C  0.84247904  0.82419731  0.11127495    -0.17400
C2469       C  0.83148061  0.82239699  0.13313826    -0.19700
C2470       C  0.80677825  0.82327118  0.13500149     0.20600
C2471       C  0.79548139  0.81940586  0.15658834    -0.32700
C2472       C  0.77065459  0.81870191  0.15810543     0.01300
C2473       C  0.75717858  0.82322007  0.13793451    -0.24000
C2474       C  0.80135048  0.83159887  0.05031930    -0.28600
C2475       C  0.82563764  0.82727498  0.04839242     0.07000
C2476       C  0.83953279  0.82610599  0.06870082    -0.27300
H2477       H  0.75501847  0.83607907  0.05880462     0.11700
H2478       H  0.73572929  0.83208113  0.09694739     0.12800
H2479       H  0.86149454  0.82256942  0.11025536     0.11900
H2480       H  0.84226686  0.81961148  0.14852813     0.11200
H2481       H  0.80600718  0.81574124  0.17199983     0.16500
H2482       H  0.73807279  0.82287086  0.13900390     0.12500
H2483       H  0.79054580  0.83183067  0.03468490     0.15300
H2484       H  0.85816692  0.82224463  0.06722124     0.15100
C2485       C  0.82320774  0.76217048  0.89455486    -0.17800
C2486       C  0.83501485  0.76829515  0.91503739    -0.20000
C2487       C  0.82606136  0.78553096  0.92932811     0.20700
C2488       C  0.80521044  0.79699191  0.92274090    -0.02900
C2489       C  0.79309427  0.79056509  0.90224284    -0.06000
C2490       C  0.80208557  0.77300219  0.88808731     0.21000
C2491       C  0.77198785  0.80171424  0.89593896     0.19100
C2492       C  0.76323359  0.81921340  0.91001209    -0.17400
C2493       C  0.77518382  0.82551988  0.93033039    -0.19700
C2494       C  0.79611448  0.81444296  0.93695538     0.20600
C2495       C  0.80740430  0.81964627  0.95812112    -0.32700
C2496       C  0.82723548  0.80714361  0.96552675     0.01300
C2497       C  0.83692364  0.79069945  0.95064780    -0.24000
C2498       C  0.79010540  0.76700842  0.86747014    -0.28600
C2499       C  0.76938799  0.77852035  0.86083534     0.07000
C2500       C  0.76031753  0.79559870  0.87535553    -0.27300
H2501       H  0.83051156  0.74881285  0.88386271     0.11700
H2502       H  0.85104111  0.75935165  0.91984576     0.12800
H2503       H  0.74707531  0.82799718  0.90533059     0.11900
H2504       H  0.76787827  0.83887388  0.94102961     0.11200
H2505       H  0.79960571  0.83199668  0.96972249     0.16500
H2506       H  0.85209910  0.78089770  0.95642192     0.12500
H2507       H  0.79756891  0.75438705  0.85596460     0.15300
H2508       H  0.74461202  0.80483898  0.87001020     0.15100
C2509       C  0.89905592  0.87032086  0.97148862    -0.17800
C2510       C  0.91229185  0.89062892  0.97053571    -0.20000
C2511       C  0.90410293  0.91042730  0.98145566     0.20700
C2512       C  0.88204600  0.90992217  0.99289169    -0.02900
C2513       C  0.86876992  0.88930089  0.99406766    -0.06000
C2514       C  0.87744619  0.86939068  0.98348508     0.21000
C2515       C  0.84725278  0.88841532  0.00651015     0.19100
C2516       C  0.83880842  0.90840608  0.01687613    -0.17400
C2517       C  0.85179265  0.92889917  0.01544351    -0.19700
C2518       C  0.87361706  0.92978791  0.00381551     0.20600
C2519       C  0.88753807  0.94988998  0.00368858    -0.32700
C2520       C  0.91010352  0.95017394  0.99335661     0.01300
C2521       C  0.91795496  0.93045090  0.98181977    -0.24000
C2522       C  0.86487493  0.84868773  0.98587437    -0.28600
C2523       C  0.84395702  0.84732552  0.99916451     0.07000
C2524       C  0.83502432  0.86742192  0.00904913    -0.27300
H2525       H  0.90598047  0.85518972  0.96325954     0.11700
H2526       H  0.92914643  0.89073761  0.96158447     0.12800
H2527       H  0.82230721  0.90811066  0.02643754     0.11900
H2528       H  0.84499749  0.94395080  0.02391477     0.11200
H2529       H  0.88133392  0.96490868  0.01266244     0.16500
H2530       H  0.93517082  0.93051058  0.97353870     0.12500
H2531       H  0.87210083  0.83324500  0.97852398     0.15300
H2532       H  0.81891540  0.86658503  0.01918990     0.15100
loop_ 
_geom_bond_atom_site_label_1 
_geom_bond_atom_site_label_2 
_geom_bond_distance 
_geom_bond_site_symmetry_2 
_ccdc_geom_bond_type 
N1            C5   1.363   1_554  A
N1            C2   1.362       .  A
N1         C2523   1.448   1_554  S
C2            C3   1.381       .  A
C2         C2475   1.477       .  S
C3            C4   1.368       .  A
C3            H6   1.083       .  S
C4            C5   1.382   1_554  A
C4            H7   1.082   1_554  S
C5         C2496   1.483       .  S
N8           C12   1.367   1_554  A
N8            C9   1.366       .  A
N8         C2448   1.453       .  S
C9           C10   1.381       .  A
C9         C2400   1.477       .  S
C10          C11   1.359   1_554  A
C10          H13   1.083       .  S
C11          C12   1.380       .  A
C11          H14   1.083       .  S
C12        C2424   1.480       .  S
N15          C19   1.369       .  A
N15          C16   1.364   1_556  A
N15        C2379   1.450       .  S
C16          C17   1.378       .  A
C16        C2328   1.481       .  S
C17          C18   1.365   1_554  A
C17          H20   1.083       .  S
C18          C19   1.385       .  A
C18          H21   1.082       .  S
C19        C2352   1.495       .  S
N22          C26   1.368       .  A
N22          C23   1.365       .  A
N22        C2307   1.450       .  S
C23          C24   1.380       .  A
C23        C2280   1.477       .  S
C24          C25   1.365       .  A
C24          H27   1.083       .  S
C25          C26   1.382       .  A
C25          H28   1.082       .  S
C26        C2259   1.493   1_545  S
N29          C33   1.379       .  A
N29          C30   1.377       .  A
N29        C2232   1.475       .  S
C30          C31   1.381       .  A
C30        C2184   1.496       .  S
C31          C32   1.358       .  A
C31          H34   1.083       .  S
C32          C33   1.382       .  A
C32          H35   1.083   1_655  S
C33        C2211   1.501   1_655  S
N36          C40   1.366   1_655  A
N36          C37   1.363       .  A
N36        C2160   1.451       .  S
C37          C38   1.380       .  A
C37        C2115   1.479       .  S
C38          C39   1.367       .  A
C38          H41   1.083       .  S
C39          C40   1.384   1_655  A
C39          H42   1.082       .  S
C40        C2136   1.494       .  S
N43          C47   1.358       .  A
N43          C44   1.358       .  A
N43        C2088   1.441       .  S
C44          C45   1.383       .  A
C44        C2067   1.477       .  S
C45          C46   1.368       .  A
C45          H48   1.083       .  S
C46          C47   1.380       .  A
C46          H49   1.082   1_545  S
C47        C2043   1.469   1_545  S
N50          C54   1.372   1_655  A
N50          C51   1.371       .  A
N50        C2016   1.464       .  S
C51          C52   1.379       .  A
C51        C1992   1.486       .  S
C52          C53   1.359       .  A
C52          H55   1.083       .  S
C53          C54   1.381   1_655  A
C53          H56   1.083   1_655  S
C54        C1968   1.483       .  S
N57          C61   1.370       .  A
N57          C58   1.365       .  A
N57        C1944   1.452       .  S
C58          C59   1.379       .  A
C58        C1923   1.480       .  S
C59          C60   1.364       .  A
C59          H62   1.083       .  S
C60          C61   1.384       .  A
C60          H63   1.082       .  S
C61        C1896   1.492   1_545  S
N64          C68   1.373       .  A
N64          C65   1.374       .  A
N64        C1824   1.460       .  S
C65          C66   1.381       .  A
C65        C1848   1.495       .  S
C66          C67   1.359       .  A
C66          H69   1.083       .  S
C67          C68   1.380       .  A
C67          H70   1.083   1_655  S
C68        C1872   1.487   1_655  S
Zr71         O72   2.438       .  S
Zr71         O73   2.437       .  S
Zr71         O74   2.409       .  S
Zr71         O77   2.398       .  S
Zr71         O79   2.369       .  S
Zr71         O80   2.384       .  S
Zr71         O81   2.405       .  S
Zr71         O82   2.397       .  S
O72         H128   0.990       .  S
O72         H136   0.990       .  S
O73          C93   1.284       .  A
O74          C95   1.281       .  A
O75         Zr85   2.486       .  S
O75          C94   1.294       .  A
O76         Zr84   2.484       .  S
O76          C95   1.295       .  A
O77          C94   1.279       .  A
O78         Zr86   2.446       .  S
O78          C93   1.286       .  A
O79         Zr84   2.385       .  S
O79         Zr86   2.361       .  S
O80         Zr85   2.400       .  S
O80         Zr86   2.376       .  S
O80         H115   0.966       .  S
O81         Zr84   2.408       .  S
O81        Zr101   2.408       .  S
O81         H118   0.966       .  S
O82         Zr85   2.406       .  S
O82        Zr101   2.401       .  S
Zr83        O108   2.437       .  S
Zr83        O102   2.430       .  S
Zr83        O110   2.417       .  S
Zr83         O98   2.399       .  S
Zr83         O89   2.402       .  S
Zr83         O90   2.403       .  S
Zr83         O91   2.375       .  S
Zr83         O92   2.379       .  S
Zr84        O103   2.436       .  S
Zr84         O96   2.435       .  S
Zr84         O97   2.480       .  S
Zr84         O90   2.399       .  S
Zr84         O91   2.391       .  S
Zr85         O87   2.434       .  S
Zr85        O109   2.437       .  S
Zr85        O111   2.502       .  S
Zr85         O89   2.403       .  S
Zr85         O92   2.396       .  S
Zr86        O112   2.435       .  S
Zr86        O113   2.438       .  S
Zr86         O88   2.439       .  S
Zr86         O89   2.417       .  S
Zr86         O90   2.399       .  S
O87         H124   0.990       .  S
O88         H119   0.990       .  S
O88         H133   0.990       .  S
O90         H116   0.966       .  S
O91        Zr101   2.367       .  S
O92        Zr101   2.364       .  S
O92         H117   0.965       .  S
C93        C1752   1.483       .  S
C94        C1707   1.479       .  S
C95        C1728   1.491       .  S
O96         H132   0.990       .  S
O97          C99   1.294       .  A
O98          C99   1.280       .  A
C99        C1776   1.481       .  S
O100       Zr101   2.437       .  S
O100        H129   0.990       .  S
Zr101       O104   2.436       .  S
Zr101       O105   2.437       .  S
Zr101       O106   2.448       .  S
O102        C107   1.283       .  A
O103        H120   0.990       .  S
O103        H135   0.990       .  S
O104        H121   0.990       .  S
O105        H125   0.990       .  S
O105        H134   0.990       .  S
O106        C107   1.287       .  A
C107       C1800   1.482       .  S
O108        H127   0.990       .  S
O108        H131   0.990       .  S
O109        H123   0.990       .  S
O109        H130   0.990       .  S
O110        C114   1.281       .  A
O111        C114   1.298       .  A
O112        H122   0.991       .  S
O113        H126   0.990       .  S
C114       C1875   1.488       .  S
N137        C141   1.364       .  A
N137        C138   1.363       .  A
N137       C1656   1.448       .  S
C138        C139   1.381       .  A
C138       C1803   1.478       .  S
C139        C140   1.368       .  A
C139        H142   1.083       .  S
C140        C141   1.381       .  A
C140        H143   1.083       .  S
C141       C1683   1.481   1_545  S
Zr144       O145   2.439       .  S
Zr144       O146   2.448       .  S
Zr144       O147   2.409       .  S
Zr144       O150   2.395       .  S
Zr144       O152   2.380       .  S
Zr144       O153   2.379       .  S
Zr144       O154   2.404       .  S
Zr144       O155   2.399       .  S
O145        H201   0.990       .  S
O145        H209   0.990       .  S
O146        C166   1.287       .  A
O147        C168   1.281       .  A
O148       Zr158   2.483       .  S
O148        C167   1.294       .  A
O149       Zr157   2.468       .  S
O149        C168   1.292       .  A
O150        C167   1.279       .  A
O151       Zr159   2.444       .  S
O151        C166   1.286       .  A
O152       Zr157   2.399       .  S
O152       Zr159   2.373       .  S
O153       Zr158   2.390       .  S
O153       Zr159   2.368       .  S
O153        H188   0.966       .  S
O154       Zr157   2.403       .  S
O154       Zr174   2.406       .  S
O154        H191   0.966       .  S
O155       Zr158   2.397       .  S
O155       Zr174   2.401       .  S
Zr156       O181   2.439       .  S
Zr156       O175   2.434       .  S
Zr156       O183   2.399       .  S
Zr156       O171   2.397       .  S
Zr156       O162   2.400       .  S
Zr156       O163   2.400       .  S
Zr156       O164   2.373       .  S
Zr156       O165   2.377       .  S
Zr157       O176   2.434       .  S
Zr157       O169   2.435       .  S
Zr157       O170   2.481       .  S
Zr157       O163   2.396       .  S
Zr157       O164   2.388       .  S
Zr158       O160   2.437       .  S
Zr158       O182   2.434       .  S
Zr158       O184   2.478       .  S
Zr158       O162   2.401       .  S
Zr158       O165   2.392       .  S
Zr159       O185   2.437       .  S
Zr159       O186   2.437       .  S
Zr159       O161   2.436       .  S
Zr159       O162   2.405       .  S
Zr159       O163   2.402       .  S
O160        H197   0.990       .  S
O161        H192   0.990       .  S
O161        H206   0.990       .  S
O163        H189   0.966       .  S
O164       Zr174   2.374       .  S
O165       Zr174   2.367       .  S
O165        H190   0.965       .  S
C166       C1587   1.488       .  S
C167       C1611   1.481       .  S
C168       C1635   1.480       .  S
O169        H205   0.990       .  S
O170        C172   1.293       .  A
O171        C172   1.278       .  A
C172       C1680   1.477       .  S
O173       Zr174   2.437       .  S
O173        H202   0.990       .  S
Zr174       O177   2.436       .  S
Zr174       O178   2.438       .  S
Zr174       O179   2.453       .  S
O175        C180   1.284       .  A
O176        H193   0.990       .  S
O176        H208   0.990       .  S
O177        H194   0.990       .  S
O178        H198   0.990       .  S
O178        H207   0.990       .  S
O179        C180   1.288       .  A
C180       C2331   1.482       .  S
O181        H200   0.990       .  S
O181        H204   0.990       .  S
O182        H196   0.990       .  S
O182        H203   0.990       .  S
O183        C187   1.279       .  A
O184        C187   1.293       .  A
O185        H195   0.990       .  S
O186        H199   0.990       .  S
C187       C1971   1.472       .  S
Zr210       O211   2.438       .  S
Zr210       O212   2.438       .  S
Zr210       O213   2.398       .  S
Zr210       O216   2.387       .  S
Zr210       O218   2.375       .  S
Zr210       O219   2.378       .  S
Zr210       O220   2.404       .  S
Zr210       O221   2.402       .  S
O211        H267   0.990       .  S
O211        H275   0.990       .  S
O212        C232   1.284       .  A
O213        C234   1.278       .  A
O214       Zr224   2.489       .  S
O214        C233   1.295       .  A
O215       Zr223   2.488       .  S
O215        C234   1.295       .  A
O216        C233   1.276       .  A
O217       Zr225   2.451       .  S
O217        C232   1.287       .  A
O218       Zr223   2.392       .  S
O218       Zr225   2.368       .  S
O219       Zr224   2.393       .  S
O219       Zr225   2.367       .  S
O219        H254   0.966       .  S
O220       Zr223   2.407       .  S
O220       Zr240   2.406       .  S
O220        H257   0.966       .  S
O221       Zr224   2.407       .  S
O221       Zr240   2.403       .  S
Zr222       O247   2.438       .  S
Zr222       O241   2.433       .  S
Zr222       O249   2.395       .  S
Zr222       O237   2.398       .  S
Zr222       O228   2.401       .  S
Zr222       O229   2.403       .  S
Zr222       O230   2.375       .  S
Zr222       O231   2.381       .  S
Zr223       O242   2.438       .  S
Zr223       O235   2.434       .  S
Zr223       O236   2.487       .  S
Zr223       O229   2.405       .  S
Zr223       O230   2.388       .  S
Zr224       O226   2.435       .  S
Zr224       O248   2.434       .  S
Zr224       O250   2.491       .  S
Zr224       O228   2.405       .  S
Zr224       O231   2.395       .  S
Zr225       O251   2.437       .  S
Zr225       O252   2.435       .  S
Zr225       O227   2.438       .  S
Zr225       O228   2.409       .  S
Zr225       O229   2.408       .  S
O226        H263   0.990       .  S
O227        H258   0.990       .  S
O227        H272   0.990       .  S
O229        H255   0.966       .  S
O230       Zr240   2.372       .  S
O231       Zr240   2.357       .  S
O231        H256   0.964       .  S
C232       C1920   1.489       .  S
C233       C2403   1.473       .  S
C234       C1851   1.485       .  S
O235        H271   0.989       .  S
O236        C238   1.295       .  A
O237        C238   1.278       .  A
C238       C1515   1.481       .  S
O239       Zr240   2.434       .  S
O239        H268   0.990       .  S
Zr240       O243   2.434       .  S
Zr240       O244   2.437       .  S
Zr240       O245   2.448       .  S
O241        C246   1.283       .  A
O242        H259   0.990       .  S
O242        H274   0.990       .  S
O243        H260   0.990       .  S
O244        H264   0.990       .  S
O244        H273   0.990       .  S
O245        C246   1.286       .  A
C246       C1536   1.479       .  S
O247        H266   0.990       .  S
O247        H270   0.990       .  S
O248        H262   0.990       .  S
O248        H269   0.990       .  S
O249        C253   1.278       .  A
O250        C253   1.296       .  A
O251        H261   0.990       .  S
O252        H265   0.989       .  S
C253       C1563   1.473       .  S
Zr276       O277   2.438       .  S
Zr276       O278   2.440       .  S
Zr276       O279   2.396       .  S
Zr276       O282   2.401       .  S
Zr276       O284   2.377       .  S
Zr276       O285   2.375       .  S
Zr276       O286   2.402       .  S
Zr276       O287   2.400       .  S
O277        H333   0.990       .  S
O277        H341   0.990       .  S
O278        C298   1.286       .  A
O279        C300   1.279       .  A
O280       Zr290   2.475       .  S
O280        C299   1.292       .  A
O281       Zr289   2.486       .  S
O281        C300   1.296       .  A
O282        C299   1.279       .  A
O283       Zr291   2.438       .  S
O283        C298   1.285       .  A
O284       Zr289   2.391       .  S
O284       Zr291   2.370       .  S
O285       Zr290   2.391       .  S
O285       Zr291   2.369       .  S
O285        H320   0.965       .  S
O286       Zr289   2.403       .  S
O286       Zr306   2.400       .  S
O286        H323   0.966       .  S
O287       Zr290   2.403       .  S
O287       Zr306   2.408       .  S
Zr288       O313   2.441       .  S
Zr288       O307   2.432       .  S
Zr288       O315   2.404       .  S
Zr288       O303   2.387       .  S
Zr288       O294   2.393       .  S
Zr288       O295   2.400       .  S
Zr288       O296   2.378       .  S
Zr288       O297   2.378       .  S
Zr289       O308   2.435       .  S
Zr289       O301   2.435       .  S
Zr289       O302   2.488       .  S
Zr289       O295   2.398       .  S
Zr289       O296   2.391       .  S
Zr290       O292   2.435       .  S
Zr290       O314   2.436       .  S
Zr290       O316   2.476       .  S
Zr290       O294   2.401       .  S
Zr290       O297   2.396       .  S
Zr291       O317   2.436       .  S
Zr291       O318   2.436       .  S
Zr291       O293   2.436       .  S
Zr291       O294   2.408       .  S
Zr291       O295   2.391       .  S
O292        H329   0.990       .  S
O293        H324   0.990       .  S
O293        H338   0.990       .  S
O295        H321   0.966       .  S
O296       Zr306   2.370       .  S
O297       Zr306   2.366       .  S
O297        H322   0.965       .  S
C298       C1440   1.487       .  S
C299       C1464   1.472       .  S
C300       C1488   1.488       .  S
O301        H337   0.990       .  S
O302        C304   1.295       .  A
O303        C304   1.276       .  A
C304       C1995   1.477       .  S
O305       Zr306   2.436       .  S
O305        H334   0.990       .  S
Zr306       O309   2.438       .  S
Zr306       O310   2.439       .  S
Zr306       O311   2.449       .  S
O307        C312   1.284       .  A
O308        H325   0.990       .  S
O308        H340   0.990       .  S
O309        H326   0.990       .  S
O310        H330   0.990       .  S
O310        H339   0.990       .  S
O311        C312   1.287       .  A
C312       C2472   1.487       .  S
O313        H332   0.990       .  S
O313        H336   0.990       .  S
O314        H328   0.990       .  S
O314        H335   0.990       .  S
O315        C319   1.280       .  A
O316        C319   1.293       .  A
O317        H327   0.990       .  S
O318        H331   0.990       .  S
C319       C1899   1.480       .  S
N342        C346   1.369   1_554  A
N342        C343   1.371       .  A
N342       C1392   1.460       .  S
C343        C344   1.381       .  A
C343       C1779   1.490       .  S
C344        C345   1.360   1_554  A
C344        H347   1.082       .  S
C345        C346   1.382       .  A
C345        H348   1.083       .  S
C346       C1419   1.486       .  S
Zr349       O350   2.439       .  S
Zr349       O351   2.432       .  S
Zr349       O352   2.400       .  S
Zr349       O355   2.397       .  S
Zr349       O357   2.377       .  S
Zr349       O358   2.379       .  S
Zr349       O359   2.394       .  S
Zr349       O360   2.397       .  S
O350        H406   0.990       .  S
O350        H414   0.990       .  S
O351        C371   1.283       .  A
O352        C373   1.278       .  A
O353       Zr363   2.486       .  S
O353        C372   1.295       .  A
O354       Zr362   2.493       .  S
O354        C373   1.296       .  A
O355        C372   1.278       .  A
O356       Zr364   2.423       .  S
O356        C371   1.282       .  A
O357       Zr362   2.392       .  S
O357       Zr364   2.374       .  S
O358       Zr363   2.390       .  S
O358       Zr364   2.371       .  S
O358        H393   0.965       .  S
O359       Zr362   2.401       .  S
O359       Zr379   2.394       .  S
O359        H396   0.966       .  S
O360       Zr363   2.402       .  S
O360       Zr379   2.401       .  S
Zr361       O386   2.440       .  S
Zr361       O380   2.414       .  S
Zr361       O388   2.407       .  S
Zr361       O376   2.398       .  S
Zr361       O367   2.390       .  S
Zr361       O368   2.402       .  S
Zr361       O369   2.377       .  S
Zr361       O370   2.384       .  S
Zr362       O381   2.437       .  S
Zr362       O374   2.435       .  S
Zr362       O375   2.486       .  S
Zr362       O368   2.412       .  S
Zr362       O369   2.387       .  S
Zr363       O365   2.438       .  S
Zr363       O387   2.435       .  S
Zr363       O389   2.483       .  S
Zr363       O367   2.404       .  S
Zr363       O370   2.395       .  S
Zr364       O390   2.437       .  S
Zr364       O391   2.436       .  S
Zr364       O366   2.437       .  S
Zr364       O367   2.400       .  S
Zr364       O368   2.397       .  S
O365        H402   0.990       .  S
O366        H397   0.990       .  S
O366        H411   0.990       .  S
O368        H394   0.966       .  S
O369       Zr379   2.363       .  S
O370       Zr379   2.372       .  S
O370        H395   0.966       .  S
C371       C2064   1.467       .  S
C372       C1416   1.474       .  S
C373       C2208   1.485       .  S
O374        H410   0.990       .  S
O375        C377   1.295       .  A
O376        C377   1.278       .  A
C377       C1320   1.476       .  S
O378       Zr379   2.436       .  S
O378        H407   0.990       .  S
Zr379       O382   2.435       .  S
Zr379       O383   2.439       .  S
Zr379       O384   2.437       .  S
O380        C385   1.279       .  A
O381        H398   0.990       .  S
O381        H413   0.990       .  S
O382        H399   0.990       .  S
O383        H403   0.990       .  S
O383        H412   0.990       .  S
O384        C385   1.285       .  A
C385       C1347   1.467       .  S
O386        H405   0.990       .  S
O386        H409   0.990       .  S
O387        H401   0.990       .  S
O387        H408   0.990       .  S
O388        C392   1.279       .  A
O389        C392   1.293       .  A
O390        H400   0.990       .  S
O391        H404   0.990       .  S
C392       C1368   1.477       .  S
Zr415       O416   2.438       .  S
Zr415       O417   2.412       .  S
Zr415       O418   2.394       .  S
Zr415       O421   2.405       .  S
Zr415       O423   2.376       .  S
Zr415       O424   2.383       .  S
Zr415       O425   2.395       .  S
Zr415       O426   2.392       .  S
O416        H472   0.990       .  S
O416        H480   0.990       .  S
O417        C437   1.279       .  A
O418        C439   1.278       .  A
O419       Zr429   2.501       .  S
O419        C438   1.298       .  A
O420       Zr428   2.484       .  S
O420        C439   1.295       .  A
O421        C438   1.280       .  A
O422       Zr430   2.439       .  S
O422        C437   1.285       .  A
O423       Zr428   2.386       .  S
O423       Zr430   2.367       .  S
O424       Zr429   2.393       .  S
O424       Zr430   2.363       .  S
O424        H459   0.965       .  S
O425       Zr428   2.404       .  S
O425       Zr445   2.394       .  S
O425        H462   0.965       .  S
O426       Zr429   2.400       .  S
O426       Zr445   2.401       .  S
Zr427       O452   2.440       .  S
Zr427       O446   2.442       .  S
Zr427       O454   2.407       .  S
Zr427       O442   2.416       .  S
Zr427       O433   2.406       .  S
Zr427       O434   2.403       .  S
Zr427       O435   2.379       .  S
Zr427       O436   2.385       .  S
Zr428       O447   2.435       .  S
Zr428       O440   2.435       .  S
Zr428       O441   2.480       .  S
Zr428       O434   2.404       .  S
Zr428       O435   2.391       .  S
Zr429       O431   2.433       .  S
Zr429       O453   2.438       .  S
Zr429       O455   2.485       .  S
Zr429       O433   2.409       .  S
Zr429       O436   2.400       .  S
Zr430       O456   2.435       .  S
Zr430       O457   2.436       .  S
Zr430       O432   2.437       .  S
Zr430       O433   2.405       .  S
Zr430       O434   2.402       .  S
O431        H468   0.990       .  S
O432        H463   0.990       .  S
O432        H477   0.990       .  S
O434        H460   0.966       .  S
O435       Zr445   2.371       .  S
O436       Zr445   2.372       .  S
O436        H461   0.966       .  S
C437       C2040   1.466       .  S
C438       C2139   1.489       .  S
C439       C2355   1.486       .  S
O440        H476   0.990       .  S
O441        C443   1.294       .  A
O442        C443   1.282       .  A
C443       C1272   1.487       .  S
O444       Zr445   2.435       .  S
O444        H473   0.990       .  S
Zr445       O448   2.436       .  S
Zr445       O449   2.438       .  S
Zr445       O450   2.430       .  S
O446        C451   1.285       .  A
O447        H464   0.990       .  S
O447        H479   0.990       .  S
O448        H465   0.990       .  S
O449        H469   0.990       .  S
O449        H478   0.990       .  S
O450        C451   1.284       .  A
C451       C1299   1.480       .  S
O452        H471   0.990       .  S
O452        H475   0.990       .  S
O453        H467   0.990       .  S
O453        H474   0.990       .  S
O454        C458   1.281       .  A
O455        C458   1.295       .  A
O456        H466   0.990       .  S
O457        H470   0.990       .  S
C458       C1248   1.487       .  S
Zr481       O482   2.439       .  S
Zr481       O483   2.437       .  S
Zr481       O484   2.386       .  S
Zr481       O487   2.397       .  S
Zr481       O489   2.378       .  S
Zr481       O490   2.376       .  S
Zr481       O491   2.402       .  S
Zr481       O492   2.395       .  S
O482        H538   0.990       .  S
O482        H546   0.990       .  S
O483        C503   1.285       .  A
O484        C505   1.275       .  A
O485       Zr495   2.507       .  S
O485        C504   1.298       .  A
O486       Zr494   2.484       .  S
O486        C505   1.294       .  A
O487        C504   1.277       .  A
O488       Zr496   2.429       .  S
O488        C503   1.284       .  A
O489       Zr494   2.392       .  S
O489       Zr496   2.371       .  S
O490       Zr495   2.388       .  S
O490       Zr496   2.372       .  S
O490        H525   0.966       .  S
O491       Zr494   2.407       .  S
O491       Zr511   2.402       .  S
O491        H528   0.966       .  S
O492       Zr495   2.399       .  S
O492       Zr511   2.409       .  S
Zr493       O518   2.441       .  S
Zr493       O512   2.444       .  S
Zr493       O520   2.400       .  S
Zr493       O508   2.402       .  S
Zr493       O499   2.401       .  S
Zr493       O500   2.402       .  S
Zr493       O501   2.375       .  S
Zr493       O502   2.385       .  S
Zr494       O513   2.437       .  S
Zr494       O506   2.436       .  S
Zr494       O507   2.485       .  S
Zr494       O500   2.401       .  S
Zr494       O501   2.394       .  S
Zr495       O497   2.434       .  S
Zr495       O519   2.435       .  S
Zr495       O521   2.484       .  S
Zr495       O499   2.406       .  S
Zr495       O502   2.405       .  S
Zr496       O522   2.435       .  S
Zr496       O523   2.437       .  S
Zr496       O498   2.439       .  S
Zr496       O499   2.402       .  S
Zr496       O500   2.396       .  S
O497        H534   0.990       .  S
O498        H529   0.990       .  S
O498        H543   0.990       .  S
O500        H526   0.966       .  S
O501       Zr511   2.370       .  S
O502       Zr511   2.372       .  S
O502        H527   0.966       .  S
C503       C2283   1.484       .  S
C504       C2187   1.486       .  S
C505       C2427   1.474       .  S
O506        H542   0.990       .  S
O507        C509   1.295       .  A
O508        C509   1.279       .  A
C509       C1200   1.481       .  S
O510       Zr511   2.435       .  S
O510        H539   0.990       .  S
Zr511       O514   2.435       .  S
Zr511       O515   2.437       .  S
Zr511       O516   2.447       .  S
O512        C517   1.286       .  A
O513        H530   0.990       .  S
O513        H545   0.990       .  S
O514        H531   0.990       .  S
O515        H535   0.990       .  S
O515        H544   0.990       .  S
O516        C517   1.286       .  A
C517       C1224   1.488       .  S
O518        H537   0.990       .  S
O518        H541   0.990       .  S
O519        H533   0.990       .  S
O519        H540   0.990       .  S
O520        C524   1.279       .  A
O521        C524   1.295       .  A
O522        H532   0.990       .  S
O523        H536   0.990       .  S
C524       C1176   1.477       .  S
Zr547       O548   2.439       .  S
Zr547       O549   2.425       .  S
Zr547       O550   2.394       .  S
Zr547       O553   2.398       .  S
Zr547       O555   2.381       .  S
Zr547       O556   2.375       .  S
Zr547       O557   2.400       .  S
Zr547       O558   2.395       .  S
O548        H604   0.990       .  S
O548        H612   0.990       .  S
O549        C569   1.283       .  A
O550        C571   1.278       .  A
O551       Zr561   2.497       .  S
O551        C570   1.297       .  A
O552       Zr560   2.484       .  S
O552        C571   1.294       .  A
O553        C570   1.280       .  A
O554       Zr562   2.453       .  S
O554        C569   1.288       .  A
O555       Zr560   2.399       .  S
O555       Zr562   2.372       .  S
O556       Zr561   2.384       .  S
O556       Zr562   2.363       .  S
O556        H591   0.965       .  S
O557       Zr560   2.409       .  S
O557       Zr577   2.402       .  S
O557        H594   0.966       .  S
O558       Zr561   2.400       .  S
O558       Zr577   2.400       .  S
Zr559       O584   2.441       .  S
Zr559       O578   2.441       .  S
Zr559       O586   2.403       .  S
Zr559       O574   2.403       .  S
Zr559       O565   2.400       .  S
Zr559       O566   2.402       .  S
Zr559       O567   2.373       .  S
Zr559       O568   2.380       .  S
Zr560       O579   2.437       .  S
Zr560       O572   2.435       .  S
Zr560       O573   2.496       .  S
Zr560       O566   2.401       .  S
Zr560       O567   2.389       .  S
Zr561       O563   2.434       .  S
Zr561       O585   2.434       .  S
Zr561       O587   2.478       .  S
Zr561       O565   2.406       .  S
Zr561       O568   2.399       .  S
Zr562       O588   2.437       .  S
Zr562       O589   2.435       .  S
Zr562       O564   2.436       .  S
Zr562       O565   2.403       .  S
Zr562       O566   2.410       .  S
O563        H600   0.990       .  S
O564        H595   0.991       .  S
O564        H609   0.990       .  S
O566        H592   0.966       .  S
O567       Zr577   2.373       .  S
O568       Zr577   2.371       .  S
O568        H593   0.965       .  S
C569       C2112   1.483       .  S
C570       C2256   1.489       .  S
C571       C2499   1.478       .  S
O572        H608   0.990       .  S
O573        C575   1.296       .  A
O574        C575   1.279       .  A
C575       C1131   1.492       .  S
O576       Zr577   2.436       .  S
O576        H605   0.990       .  S
Zr577       O580   2.437       .  S
Zr577       O581   2.440       .  S
Zr577       O582   2.431       .  S
O578        C583   1.286       .  A
O579        H596   0.990       .  S
O579        H611   0.990       .  S
O580        H597   0.990       .  S
O581        H601   0.990       .  S
O581        H610   0.990       .  S
O582        C583   1.284       .  A
C583       C1155   1.484       .  S
O584        H603   0.990       .  S
O584        H607   0.990       .  S
O585        H599   0.990       .  S
O585        H606   0.990       .  S
O586        C590   1.280       .  A
O587        C590   1.294       .  A
O588        H598   0.990       .  S
O589        H602   0.990       .  S
C590       C1104   1.481       .  S
N613        C617   1.365       .  A
N613        C614   1.363       .  A
N613       C1083   1.453       .  S
C614        C615   1.381       .  A
C614       C1152   1.478       .  S
C615        C616   1.367       .  A
C615        H618   1.083       .  S
C616        C617   1.383       .  A
C616        H619   1.082       .  S
C617       C1275   1.490       .  S
N620        C624   1.359       .  A
N620        C621   1.357       .  A
N620       C1056   1.437       .  S
C621        C622   1.380       .  A
C621       C1344   1.475       .  S
C622        C623   1.369       .  A
C622        H625   1.083       .  S
C623        C624   1.384       .  A
C623        H626   1.082       .  S
C624       C1296   1.481       .  S
N627        C631   1.371       .  A
N627        C628   1.371       .  A
N627       C1032   1.463       .  S
C628        C629   1.382       .  A
C628       C1203   1.497       .  S
C629        C630   1.359       .  A
C629        H632   1.082       .  S
C630        C631   1.382       .  A
C630        H633   1.083       .  S
C631       C1371   1.488       .  S
N634        C638   1.375       .  A
N634        C635   1.373       .  A
N634       C1008   1.465       .  S
C635        C636   1.379       .  A
C635       C1227   1.483       .  S
C636        C637   1.362       .  A
C636        H639   1.083       .  S
C637        C638   1.382       .  A
C637        H640   1.083       .  S
C638       C1128   1.495       .  S
N641        C645   1.371       .  A
N641        C642   1.364       .  A
N641        C984   1.457       .  S
C642        C643   1.378       .  A
C642       C1560   1.477       .  S
C643        C644   1.361       .  A
C643        H646   1.083       .  S
C644        C645   1.387       .  A
C644        H647   1.080       .  S
C645       C1731   1.501       .  S
N648        C652   1.369       .  A
N648        C649   1.364       .  A
N648        C960   1.448       .  S
C649        C650   1.378       .  A
C649       C1539   1.478       .  S
C650        C651   1.365       .  A
C650        H653   1.083       .  S
C651        C652   1.385       .  A
C651        H654   1.082       .  S
C652       C1491   1.491       .  S
N655        C659   1.370       .  A
N655        C656   1.366       .  A
N655        C936   1.462       .  S
C656        C657   1.381       .  A
C656       C1467   1.484       .  S
C657        C658   1.361       .  A
C657        H660   1.083       .  S
C658        C659   1.384       .  A
C658        H661   1.081       .  S
C659       C1632   1.497       .  S
N662        C666   1.368       .  A
N662        C663   1.364       .  A
N662        C912   1.452       .  S
C663        C664   1.378       .  A
C663       C1755   1.475       .  S
C664        C665   1.363       .  A
C664        H667   1.083       .  S
C665        C666   1.383       .  A
C665        H668   1.083       .  S
C666       C1608   1.483       .  S
N669        C673   1.369       .  A
N669        C670   1.365       .  A
N669        C891   1.453       .  S
C670        C671   1.378       .  A
C670       C1443   1.480       .  S
C671        C672   1.366       .  A
C671        H674   1.083       .  S
C672        C673   1.385       .  A
C672        H675   1.082       .  S
C673       C1107   1.494       .  S
N676        C680   1.369       .  A
N676        C677   1.370       .  A
N676        C864   1.457       .  S
C677        C678   1.382       .  A
C677       C1512   1.484       .  S
C678        C679   1.358       .  A
C678        H681   1.083       .  S
C679        C680   1.379       .  A
C679        H682   1.083       .  S
C680       C1179   1.484       .  S
N683        C687   1.368       .  A
N683        C684   1.369       .  A
N683        C840   1.459       .  S
C684        C685   1.379       .  A
C684       C1584   1.484       .  S
C685        C686   1.365       .  A
C685        H688   1.083       .  S
C686        C687   1.383       .  A
C686        H689   1.082       .  S
C687       C1251   1.493       .  S
N690        C694   1.369       .  A
N690        C691   1.372       .  A
N690        C816   1.462       .  S
C691        C692   1.379       .  A
C691       C1704   1.484       .  S
C692        C693   1.357       .  A
C692        H695   1.083       .  S
C693        C694   1.382       .  A
C693        H696   1.083       .  S
C694       C1323   1.483       .  S
O697       Zr733   2.474   1_566  S
O697        C708   1.299       .  A
O698       Zr732   2.439       .  S
O698        C709   1.292   1_545  A
O699       Zr705   2.465   1_556  S
O699        C710   1.297       .  A
O700       Zr705   2.437       .  S
O700        C711   1.292       .  A
O701       Zr735   2.478   1_565  S
O701        C711   1.299       .  A
O702       Zr734   2.449       .  S
O702        C710   1.295   1_545  A
O703       Zr705   2.462   1_455  S
O703        C709   1.296       .  A
O704       Zr705   2.432   1_556  S
O704        C708   1.291       .  A
Zr705       O706   2.346   1_665  S
Zr705       O707   2.342   1_564  S
Zr705       O715   2.361   1_565  S
Zr705       O713   2.334   1_664  S
O706       Zr732   2.339       .  S
O706       Zr735   2.350   1_455  S
O707       Zr733   2.344   1_556  S
O707       Zr734   2.342       .  S
C708       C2520   1.492       .  S
C709       C2376   1.485   1_554  S
C710       C2163   1.492       .  S
C711       C2019   1.482       .  S
H712        O713   0.965       .  S
O713       Zr732   2.331   1_556  S
O713       Zr734   2.333   1_455  S
H714        O715   0.966   1_565  S
O715       Zr733   2.347       .  S
O715       Zr735   2.356       .  S
O716       Zr732   2.431       .  S
O716        C739   1.291       .  A
O717       Zr733   2.449       .  S
O717        C740   1.296       .  A
O718       Zr734   2.463   1_455  S
O718        C741   1.296       .  A
O719       Zr735   2.465   1_455  S
O719        C742   1.296       .  A
O720       Zr735   2.465       .  S
O720        C743   1.297       .  A
O721       Zr734   2.448       .  S
O721        C744   1.295       .  A
O722       Zr736   2.498   1_556  S
O722        C745   1.303       .  A
O723       Zr736   2.480       .  S
O723        C746   1.301       .  A
O724       Zr734   2.438       .  S
O724        C745   1.292       .  A
O725       Zr735   2.460       .  S
O725        C746   1.297       .  A
O726       Zr732   2.436   1_556  S
O726        C741   1.292       .  A
O727       Zr733   2.448   1_556  S
O727        C744   1.293       .  A
O728       Zr733   2.454       .  S
O728        C743   1.295       .  A
O729       Zr732   2.419       .  S
O729        C742   1.289       .  A
O730       Zr736   2.501   1_455  S
O730        C739   1.303       .  A
O731       Zr736   2.490       .  S
O731        C740   1.302       .  A
Zr732       O738   2.343   1_554  S
Zr732       O750   2.346       .  S
Zr733       O737   2.347       .  S
Zr733       O748   2.359   1_554  S
Zr734       O738   2.349   1_655  S
Zr734       O748   2.356       .  S
Zr735       O737   2.354       .  S
Zr735       O750   2.360   1_655  S
Zr736       O737   2.365       .  S
Zr736       O738   2.358   1_654  S
Zr736       O750   2.366   1_655  S
Zr736       O748   2.365   1_554  S
C739       C1395   1.498       .  S
C740       C2451   1.507       .  S
C741       C2091   1.490       .  S
C742       C1659   1.479       .  S
C743       C1947   1.497       .  S
C744       C2304   1.483       .  S
C745       C2235   1.492       .  S
C746       C1827   1.499       .  S
H747        O748   0.966       .  S
H749        O750   0.966       .  S
O751       Zr787   2.461       .  S
O751        C762   1.296       .  A
O752       Zr786   2.497       .  S
O752        C763   1.302       .  A
O753       Zr759   2.440       .  S
O753        C764   1.293       .  A
O754       Zr759   2.461       .  S
O754        C765   1.296       .  A
O755       Zr789   2.466       .  S
O755        C765   1.296       .  A
O756       Zr788   2.445       .  S
O756        C764   1.294       .  A
O757       Zr759   2.429       .  S
O757        C763   1.290       .  A
O758       Zr759   2.449       .  S
O758        C762   1.294       .  A
Zr759       O760   2.340       .  S
Zr759       O761   2.335       .  S
Zr759       O769   2.338       .  S
Zr759       O767   2.359       .  S
O760       Zr786   2.356       .  S
O760       Zr789   2.349       .  S
O761       Zr787   2.329       .  S
O761       Zr788   2.341       .  S
C762       C1080   1.489       .  S
C763       C1035   1.491       .  S
C764       C1059   1.488       .  S
C765       C1011   1.490       .  S
H766        O767   0.966       .  S
O767       Zr786   2.351       .  S
O767       Zr788   2.352       .  S
H768        O769   0.966       .  S
O769       Zr787   2.349       .  S
O769       Zr789   2.351       .  S
O770       Zr786   2.476       .  S
O770        C793   1.300       .  A
O771       Zr787   2.432       .  S
O771        C794   1.291       .  A
O772       Zr788   2.443       .  S
O772        C795   1.293       .  A
O773       Zr789   2.446       .  S
O773        C796   1.294       .  A
O774       Zr789   2.471       .  S
O774        C797   1.298       .  A
O775       Zr788   2.431       .  S
O775        C798   1.290       .  A
O776       Zr790   2.473       .  S
O776        C799   1.298       .  A
O777       Zr790   2.480       .  S
O777        C800   1.300       .  A
O778       Zr788   2.461       .  S
O778        C799   1.297       .  A
O779       Zr789   2.456       .  S
O779        C800   1.296       .  A
O780       Zr786   2.489       .  S
O780        C795   1.301       .  A
O781       Zr787   2.472       .  S
O781        C798   1.298       .  A
O782       Zr787   2.444       .  S
O782        C797   1.294       .  A
O783       Zr786   2.466       .  S
O783        C796   1.298       .  A
O784       Zr790   2.442       .  S
O784        C793   1.294       .  A
O785       Zr790   2.495       .  S
O785        C794   1.302       .  A
Zr786       O792   2.359       .  S
Zr786       O804   2.372       .  S
Zr787       O791   2.360       .  S
Zr787       O802   2.348       .  S
Zr788       O792   2.339       .  S
Zr788       O802   2.349       .  S
Zr789       O791   2.352       .  S
Zr789       O804   2.356       .  S
Zr790       O791   2.350       .  S
Zr790       O792   2.365       .  S
Zr790       O804   2.364       .  S
Zr790       O802   2.353       .  S
C793        C987   1.488       .  S
C794        C939   1.494       .  S
C795        C819   1.497       .  S
C796        C867   1.489       .  S
C797        C888   1.492       .  S
C798        C843   1.483       .  S
C799        C915   1.498       .  S
C800        C963   1.505       .  S
H801        O802   0.966       .  S
H803        O804   0.966       .  S
C805        C806   1.408       .  A
C805        C810   1.407       .  A
C805        H821   1.083       .  S
C806        C807   1.407       .  A
C806        H822   1.083       .  S
C807        C817   1.418       .  A
C807        C808   1.411       .  A
C808        C814   1.410       .  A
C808        C809   1.422       .  A
C809        C811   1.411       .  A
C809        C810   1.413       .  A
C810        C818   1.419       .  A
C811        C820   1.406       .  A
C811        C812   1.404       .  A
C812        C813   1.400       .  A
C812        H823   1.084       .  S
C813        C814   1.404       .  A
C813        H824   1.084       .  S
C814        C815   1.407       .  A
C815        C816   1.413       .  A
C815        H825   1.083       .  S
C816        C817   1.416       .  A
C817        H826   1.080       .  S
C818        C819   1.413       .  A
C818        H827   1.084       .  S
C819        C820   1.409       .  A
C820        H828   1.085       .  S
C829        C830   1.401       .  A
C829        C834   1.403       .  A
C829        H845   1.084       .  S
C830        C831   1.405       .  A
C830        H846   1.083       .  S
C831        C841   1.409       .  A
C831        C832   1.411       .  A
C832        C838   1.410       .  A
C832        C833   1.418       .  A
C833        C835   1.412       .  A
C833        C834   1.413       .  A
C834        C842   1.407       .  A
C835        C844   1.409       .  A
C835        C836   1.405       .  A
C836        C837   1.403       .  A
C836        H847   1.084       .  S
C837        C838   1.406       .  A
C837        H848   1.084       .  S
C838        C839   1.409       .  A
C839        C840   1.416       .  A
C839        H849   1.083       .  S
C840        C841   1.411       .  A
C841        H850   1.080       .  S
C842        C843   1.404       .  A
C842        H851   1.084       .  S
C843        C844   1.410       .  A
C844        H852   1.085       .  S
C853        C854   1.405       .  A
C853        C858   1.406       .  A
C853        H869   1.083       .  S
C854        C855   1.406       .  A
C854        H870   1.083       .  S
C855        C865   1.416       .  A
C855        C856   1.413       .  A
C856        C862   1.409       .  A
C856        C857   1.419       .  A
C857        C859   1.412       .  A
C857        C858   1.412       .  A
C858        C866   1.413       .  A
C859        C868   1.405       .  A
C859        C860   1.403       .  A
C860        C861   1.399       .  A
C860        H871   1.084       .  S
C861        C862   1.405       .  A
C861        H872   1.084       .  S
C862        C863   1.404       .  A
C863        C864   1.412       .  A
C863        H873   1.083       .  S
C864        C865   1.412       .  A
C865        H874   1.081       .  S
C866        C867   1.410       .  A
C866        H875   1.084       .  S
C867        C868   1.408       .  A
C868        H876   1.085       .  S
C877        C878   1.401       .  A
C877        C882   1.405       .  A
C877        H893   1.084       .  S
C878        C879   1.404       .  A
C878        H894   1.084       .  S
C879        C889   1.406       .  A
C879        C880   1.411       .  A
C880        C886   1.413       .  A
C880        C881   1.419       .  A
C881        C883   1.411       .  A
C881        C882   1.411       .  A
C882        C890   1.408       .  A
C883        C892   1.410       .  A
C883        C884   1.405       .  A
C884        C885   1.403       .  A
C884        H895   1.083       .  S
C885        C886   1.405       .  A
C885        H896   1.083       .  S
C886        C887   1.412       .  A
C887        C888   1.410       .  A
C887        H897   1.084       .  S
C888        C889   1.410       .  A
C889        H898   1.084       .  S
C890        C891   1.411       .  A
C890        H899   1.084       .  S
C891        C892   1.411       .  A
C892        H900   1.082       .  S
C901        C902   1.405       .  A
C901        C906   1.406       .  A
C901        H917   1.083       .  S
C902        C903   1.406       .  A
C902        H918   1.083       .  S
C903        C913   1.413       .  A
C903        C904   1.412       .  A
C904        C910   1.412       .  A
C904        C905   1.421       .  A
C905        C907   1.411       .  A
C905        C906   1.413       .  A
C906        C914   1.416       .  A
C907        C916   1.408       .  A
C907        C908   1.405       .  A
C908        C909   1.401       .  A
C908        H919   1.084       .  S
C909        C910   1.404       .  A
C909        H920   1.084       .  S
C910        C911   1.408       .  A
C911        C912   1.409       .  A
C911        H921   1.084       .  S
C912        C913   1.411       .  A
C913        H922   1.083       .  S
C914        C915   1.412       .  A
C914        H923   1.084       .  S
C915        C916   1.410       .  A
C916        H924   1.084       .  S
C925        C926   1.406       .  A
C925        C930   1.406       .  A
C925        H941   1.083       .  S
C926        C927   1.407       .  A
C926        H942   1.083       .  S
C927        C937   1.415       .  A
C927        C928   1.411       .  A
C928        C934   1.411       .  A
C928        C929   1.421       .  A
C929        C931   1.410       .  A
C929        C930   1.414       .  A
C930        C938   1.418       .  A
C931        C940   1.406       .  A
C931        C932   1.404       .  A
C932        C933   1.400       .  A
C932        H943   1.084       .  S
C933        C934   1.405       .  A
C933        H944   1.084       .  S
C934        C935   1.408       .  A
C935        C936   1.415       .  A
C935        H945   1.083       .  S
C936        C937   1.415       .  A
C937        H946   1.081       .  S
C938        C939   1.411       .  A
C938        H947   1.084       .  S
C939        C940   1.410       .  A
C940        H948   1.085       .  S
C949        C950   1.400       .  A
C949        C954   1.405       .  A
C949        H965   1.083       .  S
C950        C951   1.403       .  A
C950        H966   1.084       .  S
C951        C961   1.407       .  A
C951        C952   1.412       .  A
C952        C958   1.412       .  A
C952        C953   1.421       .  A
C953        C955   1.412       .  A
C953        C954   1.410       .  A
C954        C962   1.408       .  A
C955        C964   1.417       .  A
C955        C956   1.407       .  A
C956        C957   1.406       .  A
C956        H967   1.083       .  S
C957        C958   1.406       .  A
C957        H968   1.083       .  S
C958        C959   1.413       .  A
C959        C960   1.410       .  A
C959        H969   1.083       .  S
C960        C961   1.407       .  A
C961        H970   1.084       .  S
C962        C963   1.412       .  A
C962        H971   1.084       .  S
C963        C964   1.414       .  A
C964        H972   1.084       .  S
C973        C974   1.400       .  A
C973        C978   1.404       .  A
C973        H989   1.084       .  S
C974        C975   1.404       .  A
C974        H990   1.084       .  S
C975        C985   1.406       .  A
C975        C976   1.411       .  A
C976        C982   1.410       .  A
C976        C977   1.418       .  A
C977        C979   1.413       .  A
C977        C978   1.411       .  A
C978        C986   1.405       .  A
C979        C988   1.413       .  A
C979        C980   1.405       .  A
C980        C981   1.404       .  A
C980        H991   1.083       .  S
C981        C982   1.406       .  A
C981        H992   1.083       .  S
C982        C983   1.411       .  A
C983        C984   1.414       .  A
C983        H993   1.082       .  S
C984        C985   1.412       .  A
C985        H994   1.083       .  S
C986        C987   1.408       .  A
C986        H995   1.085       .  S
C987        C988   1.409       .  A
C988        H996   1.084       .  S
C997        C998   1.407       .  A
C997       C1002   1.407       .  A
C997       H1013   1.084       .  S
C998        C999   1.408       .  A
C998       H1014   1.084       .  S
C999       C1009   1.415       .  A
C999       C1000   1.409       .  A
C1000      C1006   1.410       .  A
C1000      C1001   1.421       .  A
C1001      C1003   1.411       .  A
C1001      C1002   1.414       .  A
C1002      C1010   1.418       .  A
C1003      C1012   1.406       .  A
C1003      C1004   1.403       .  A
C1004      C1005   1.400       .  A
C1004      H1015   1.084       .  S
C1005      C1006   1.404       .  A
C1005      H1016   1.083       .  S
C1006      C1007   1.408       .  A
C1007      C1008   1.414       .  A
C1007      H1017   1.082       .  S
C1008      C1009   1.418       .  A
C1009      H1018   1.078       .  S
C1010      C1011   1.412       .  A
C1010      H1019   1.084       .  S
C1011      C1012   1.405       .  A
C1012      H1020   1.085       .  S
C1021      C1022   1.406       .  A
C1021      C1026   1.406       .  A
C1021      H1037   1.083       .  S
C1022      C1023   1.407       .  A
C1022      H1038   1.083       .  S
C1023      C1033   1.415       .  A
C1023      C1024   1.411       .  A
C1024      C1030   1.410       .  A
C1024      C1025   1.422       .  A
C1025      C1027   1.411       .  A
C1025      C1026   1.414       .  A
C1026      C1034   1.417       .  A
C1027      C1036   1.408       .  A
C1027      C1028   1.404       .  A
C1028      C1029   1.401       .  A
C1028      H1039   1.084       .  S
C1029      C1030   1.405       .  A
C1029      H1040   1.084       .  S
C1030      C1031   1.409       .  A
C1031      C1032   1.416       .  A
C1031      H1041   1.083       .  S
C1032      C1033   1.415       .  A
C1033      H1042   1.081       .  S
C1034      C1035   1.410       .  A
C1034      H1043   1.084       .  S
C1035      C1036   1.409       .  A
C1036      H1044   1.085       .  S
C1045      C1046   1.399       .  A
C1045      C1050   1.404       .  A
C1045      H1061   1.084       .  S
C1046      C1047   1.403       .  A
C1046      H1062   1.084       .  S
C1047      C1057   1.403       .  A
C1047      C1048   1.412       .  A
C1048      C1054   1.413       .  A
C1048      C1049   1.413       .  A
C1049      C1051   1.411       .  A
C1049      C1050   1.411       .  A
C1050      C1058   1.404       .  A
C1051      C1060   1.404       .  A
C1051      C1052   1.404       .  A
C1052      C1053   1.400       .  A
C1052      H1063   1.084       .  S
C1053      C1054   1.404       .  A
C1053      H1064   1.083       .  S
C1054      C1055   1.405       .  A
C1055      C1056   1.404       .  A
C1055      H1065   1.084       .  S
C1056      C1057   1.404       .  A
C1057      H1066   1.084       .  S
C1058      C1059   1.409       .  A
C1058      H1067   1.084       .  S
C1059      C1060   1.410       .  A
C1060      H1068   1.084       .  S
C1069      C1070   1.402       .  A
C1069      C1074   1.405       .  A
C1069      H1085   1.083       .  S
C1070      C1071   1.405       .  A
C1070      H1086   1.084       .  S
C1071      C1081   1.410       .  A
C1071      C1072   1.412       .  A
C1072      C1078   1.412       .  A
C1072      C1073   1.418       .  A
C1073      C1075   1.410       .  A
C1073      C1074   1.412       .  A
C1074      C1082   1.410       .  A
C1075      C1084   1.407       .  A
C1075      C1076   1.405       .  A
C1076      C1077   1.402       .  A
C1076      H1087   1.084       .  S
C1077      C1078   1.405       .  A
C1077      H1088   1.084       .  S
C1078      C1079   1.409       .  A
C1079      C1080   1.409       .  A
C1079      H1089   1.085       .  S
C1080      C1081   1.408       .  A
C1081      H1090   1.084       .  S
C1082      C1083   1.409       .  A
C1082      H1091   1.082       .  S
C1083      C1084   1.413       .  A
C1084      H1092   1.083       .  S
C1093      C1094   1.400       .  A
C1093      C1098   1.405       .  A
C1093      H1109   1.083       .  S
C1094      C1095   1.403       .  A
C1094      H1110   1.084       .  S
C1095      C1105   1.409       .  A
C1095      C1096   1.415       .  A
C1096      C1102   1.409       .  A
C1096      C1097   1.417       .  A
C1097      C1099   1.414       .  A
C1097      C1098   1.408       .  A
C1098      C1106   1.404       .  A
C1099      C1108   1.412       .  A
C1099      C1100   1.404       .  A
C1100      C1101   1.402       .  A
C1100      H1111   1.083       .  S
C1101      C1102   1.405       .  A
C1101      H1112   1.084       .  S
C1102      C1103   1.405       .  A
C1103      C1104   1.410       .  A
C1103      H1113   1.085       .  S
C1104      C1105   1.405       .  A
C1105      H1114   1.084       .  S
C1106      C1107   1.412       .  A
C1106      H1115   1.084       .  S
C1107      C1108   1.408       .  A
C1108      H1116   1.084       .  S
C1117      C1118   1.403       .  A
C1117      C1122   1.405       .  A
C1117      H1133   1.083       .  S
C1118      C1119   1.406       .  A
C1118      H1134   1.084       .  S
C1119      C1129   1.407       .  A
C1119      C1120   1.408       .  A
C1120      C1126   1.415       .  A
C1120      C1121   1.419       .  A
C1121      C1123   1.408       .  A
C1121      C1122   1.415       .  A
C1122      C1130   1.415       .  A
C1123      C1132   1.406       .  A
C1123      C1124   1.405       .  A
C1124      C1125   1.402       .  A
C1124      H1135   1.083       .  S
C1125      C1126   1.403       .  A
C1125      H1136   1.083       .  S
C1126      C1127   1.413       .  A
C1127      C1128   1.406       .  A
C1127      H1137   1.084       .  S
C1128      C1129   1.413       .  A
C1129      H1138   1.084       .  S
C1130      C1131   1.409       .  A
C1130      H1139   1.084       .  S
C1131      C1132   1.411       .  A
C1132      H1140   1.085       .  S
C1141      C1142   1.400       .  A
C1141      C1146   1.404       .  A
C1141      H1157   1.084       .  S
C1142      C1143   1.404       .  A
C1142      H1158   1.084       .  S
C1143      C1153   1.404       .  A
C1143      C1144   1.412       .  A
C1144      C1150   1.413       .  A
C1144      C1145   1.415       .  A
C1145      C1147   1.412       .  A
C1145      C1146   1.412       .  A
C1146      C1154   1.406       .  A
C1147      C1156   1.406       .  A
C1147      C1148   1.404       .  A
C1148      C1149   1.400       .  A
C1148      H1159   1.084       .  S
C1149      C1150   1.404       .  A
C1149      H1160   1.084       .  S
C1150      C1151   1.407       .  A
C1151      C1152   1.405       .  A
C1151      H1161   1.084       .  S
C1152      C1153   1.406       .  A
C1153      H1162   1.085       .  S
C1154      C1155   1.408       .  A
C1154      H1163   1.084       .  S
C1155      C1156   1.407       .  A
C1156      H1164   1.085       .  S
C1165      C1166   1.403       .  A
C1165      C1170   1.405       .  A
C1165      H1181   1.083       .  S
C1166      C1167   1.406       .  A
C1166      H1182   1.083       .  S
C1167      C1177   1.407       .  A
C1167      C1168   1.410       .  A
C1168      C1174   1.414       .  A
C1168      C1169   1.416       .  A
C1169      C1171   1.409       .  A
C1169      C1170   1.414       .  A
C1170      C1178   1.411       .  A
C1171      C1180   1.402       .  A
C1171      C1172   1.404       .  A
C1172      C1173   1.399       .  A
C1172      H1183   1.084       .  S
C1173      C1174   1.403       .  A
C1173      H1184   1.083       .  S
C1174      C1175   1.407       .  A
C1175      C1176   1.404       .  A
C1175      H1185   1.084       .  S
C1176      C1177   1.410       .  A
C1177      H1186   1.085       .  S
C1178      C1179   1.407       .  A
C1178      H1187   1.084       .  S
C1179      C1180   1.408       .  A
C1180      H1188   1.085       .  S
C1189      C1190   1.405       .  A
C1189      C1194   1.406       .  A
C1189      H1205   1.083       .  S
C1190      C1191   1.407       .  A
C1190      H1206   1.083       .  S
C1191      C1201   1.409       .  A
C1191      C1192   1.410       .  A
C1192      C1198   1.414       .  A
C1192      C1193   1.417       .  A
C1193      C1195   1.408       .  A
C1193      C1194   1.415       .  A
C1194      C1202   1.416       .  A
C1195      C1204   1.401       .  A
C1195      C1196   1.404       .  A
C1196      C1197   1.398       .  A
C1196      H1207   1.083       .  S
C1197      C1198   1.402       .  A
C1197      H1208   1.083       .  S
C1198      C1199   1.406       .  A
C1199      C1200   1.403       .  A
C1199      H1209   1.085       .  S
C1200      C1201   1.412       .  A
C1201      H1210   1.084       .  S
C1202      C1203   1.410       .  A
C1202      H1211   1.084       .  S
C1203      C1204   1.411       .  A
C1204      H1212   1.084       .  S
C1213      C1214   1.403       .  A
C1213      C1218   1.405       .  A
C1213      H1229   1.084       .  S
C1214      C1215   1.405       .  A
C1214      H1230   1.084       .  S
C1215      C1225   1.410       .  A
C1215      C1216   1.413       .  A
C1216      C1222   1.412       .  A
C1216      C1217   1.418       .  A
C1217      C1219   1.412       .  A
C1217      C1218   1.412       .  A
C1218      C1226   1.409       .  A
C1219      C1228   1.407       .  A
C1219      C1220   1.404       .  A
C1220      C1221   1.401       .  A
C1220      H1231   1.084       .  S
C1221      C1222   1.404       .  A
C1221      H1232   1.083       .  S
C1222      C1223   1.408       .  A
C1223      C1224   1.408       .  A
C1223      H1233   1.084       .  S
C1224      C1225   1.409       .  A
C1225      H1234   1.085       .  S
C1226      C1227   1.408       .  A
C1226      H1235   1.084       .  S
C1227      C1228   1.406       .  A
C1228      H1236   1.085       .  S
C1237      C1238   1.401       .  A
C1237      C1242   1.405       .  A
C1237      H1253   1.083       .  S
C1238      C1239   1.404       .  A
C1238      H1254   1.083       .  S
C1239      C1249   1.410       .  A
C1239      C1240   1.414       .  A
C1240      C1246   1.409       .  A
C1240      C1241   1.417       .  A
C1241      C1243   1.414       .  A
C1241      C1242   1.409       .  A
C1242      C1250   1.404       .  A
C1243      C1252   1.411       .  A
C1243      C1244   1.404       .  A
C1244      C1245   1.402       .  A
C1244      H1255   1.083       .  S
C1245      C1246   1.405       .  A
C1245      H1256   1.083       .  S
C1246      C1247   1.406       .  A
C1247      C1248   1.411       .  A
C1247      H1257   1.085       .  S
C1248      C1249   1.406       .  A
C1249      H1258   1.084       .  S
C1250      C1251   1.411       .  A
C1250      H1259   1.084       .  S
C1251      C1252   1.407       .  A
C1252      H1260   1.084       .  S
C1261      C1262   1.400       .  A
C1261      C1266   1.404       .  A
C1261      H1277   1.084       .  S
C1262      C1263   1.403       .  A
C1262      H1278   1.083       .  S
C1263      C1273   1.408       .  A
C1263      C1264   1.413       .  A
C1264      C1270   1.410       .  A
C1264      C1265   1.417       .  A
C1265      C1267   1.413       .  A
C1265      C1266   1.410       .  A
C1266      C1274   1.404       .  A
C1267      C1276   1.410       .  A
C1267      C1268   1.404       .  A
C1268      C1269   1.403       .  A
C1268      H1279   1.084       .  S
C1269      C1270   1.406       .  A
C1269      H1280   1.083       .  S
C1270      C1271   1.409       .  A
C1271      C1272   1.411       .  A
C1271      H1281   1.084       .  S
C1272      C1273   1.405       .  A
C1273      H1282   1.084       .  S
C1274      C1275   1.409       .  A
C1274      H1283   1.084       .  S
C1275      C1276   1.408       .  A
C1276      H1284   1.084       .  S
C1285      C1286   1.404       .  A
C1285      C1290   1.406       .  A
C1285      H1301   1.083       .  S
C1286      C1287   1.406       .  A
C1286      H1302   1.083       .  S
C1287      C1297   1.412       .  A
C1287      C1288   1.414       .  A
C1288      C1294   1.411       .  A
C1288      C1289   1.415       .  A
C1289      C1291   1.412       .  A
C1289      C1290   1.413       .  A
C1290      C1298   1.411       .  A
C1291      C1300   1.400       .  A
C1291      C1292   1.402       .  A
C1292      C1293   1.396       .  A
C1292      H1303   1.084       .  S
C1293      C1294   1.402       .  A
C1293      H1304   1.084       .  S
C1294      C1295   1.399       .  A
C1295      C1296   1.404       .  A
C1295      H1305   1.085       .  S
C1296      C1297   1.408       .  A
C1297      H1306   1.084       .  S
C1298      C1299   1.409       .  A
C1298      H1307   1.084       .  S
C1299      C1300   1.404       .  A
C1300      H1308   1.085       .  S
C1309      C1310   1.404       .  A
C1309      C1314   1.405       .  A
C1309      H1325   1.083       .  S
C1310      C1311   1.406       .  A
C1310      H1326   1.083       .  S
C1311      C1321   1.410       .  A
C1311      C1312   1.412       .  A
C1312      C1318   1.412       .  A
C1312      C1313   1.416       .  A
C1313      C1315   1.410       .  A
C1313      C1314   1.413       .  A
C1314      C1322   1.411       .  A
C1315      C1324   1.402       .  A
C1315      C1316   1.404       .  A
C1316      C1317   1.399       .  A
C1316      H1327   1.084       .  S
C1317      C1318   1.403       .  A
C1317      H1328   1.084       .  S
C1318      C1319   1.405       .  A
C1319      C1320   1.405       .  A
C1319      H1329   1.085       .  S
C1320      C1321   1.409       .  A
C1321      H1330   1.084       .  S
C1322      C1323   1.409       .  A
C1322      H1331   1.084       .  S
C1323      C1324   1.407       .  A
C1324      H1332   1.085       .  S
C1333      C1334   1.397       .  A
C1333      C1338   1.402       .  A
C1333      H1349   1.084       .  S
C1334      C1335   1.403       .  A
C1334      H1350   1.084       .  S
C1335      C1345   1.400       .  A
C1335      C1336   1.411       .  A
C1336      C1342   1.413       .  A
C1336      C1337   1.411       .  A
C1337      C1339   1.413       .  A
C1337      C1338   1.413       .  A
C1338      C1346   1.399       .  A
C1339      C1348   1.404       .  A
C1339      C1340   1.404       .  A
C1340      C1341   1.401       .  A
C1340      H1351   1.084       .  S
C1341      C1342   1.405       .  A
C1341      H1352   1.083       .  S
C1342      C1343   1.407       .  A
C1343      C1344   1.405       .  A
C1343      H1353   1.084       .  S
C1344      C1345   1.403       .  A
C1345      H1354   1.085       .  S
C1346      C1347   1.402       .  A
C1346      H1355   1.085       .  S
C1347      C1348   1.405       .  A
C1348      H1356   1.085       .  S
C1357      C1358   1.401       .  A
C1357      C1362   1.405       .  A
C1357      H1373   1.084       .  S
C1358      C1359   1.404       .  A
C1358      H1374   1.084       .  S
C1359      C1369   1.407       .  A
C1359      C1360   1.412       .  A
C1360      C1366   1.412       .  A
C1360      C1361   1.417       .  A
C1361      C1363   1.413       .  A
C1361      C1362   1.411       .  A
C1362      C1370   1.406       .  A
C1363      C1372   1.409       .  A
C1363      C1364   1.404       .  A
C1364      C1365   1.402       .  A
C1364      H1375   1.083       .  S
C1365      C1366   1.405       .  A
C1365      H1376   1.083       .  S
C1366      C1367   1.409       .  A
C1367      C1368   1.407       .  A
C1367      H1377   1.084       .  S
C1368      C1369   1.406       .  A
C1369      H1378   1.085       .  S
C1370      C1371   1.411       .  A
C1370      H1379   1.085       .  S
C1371      C1372   1.407       .  A
C1372      H1380   1.084       .  S
C1381      C1382   1.401       .  A
C1381      C1386   1.404       .  A
C1381      H1397   1.084       .  S
C1382      C1383   1.405       .  A
C1382      H1398   1.084       .  S
C1383      C1393   1.407       .  A
C1383      C1384   1.410       .  A
C1384      C1390   1.412   1_554  A
C1384      C1385   1.422       .  A
C1385      C1387   1.413       .  A
C1385      C1386   1.411       .  A
C1386      C1394   1.407       .  A
C1387      C1396   1.418       .  A
C1387      C1388   1.406   1_554  A
C1388      C1389   1.407       .  A
C1388      H1399   1.083       .  S
C1389      C1390   1.407       .  A
C1389      H1400   1.083       .  S
C1390      C1391   1.417       .  A
C1391      C1392   1.414   1_556  A
C1391      H1401   1.082       .  S
C1392      C1393   1.414       .  A
C1393      H1402   1.083       .  S
C1394      C1395   1.411       .  A
C1394      H1403   1.085       .  S
C1395      C1396   1.411       .  A
C1396      H1404   1.084   1_554  S
C1405      C1406   1.398       .  A
C1405      C1410   1.404       .  A
C1405      H1421   1.084       .  S
C1406      C1407   1.403       .  A
C1406      H1422   1.084       .  S
C1407      C1417   1.402       .  A
C1407      C1408   1.411       .  A
C1408      C1414   1.413       .  A
C1408      C1409   1.417       .  A
C1409      C1411   1.412       .  A
C1409      C1410   1.411       .  A
C1410      C1418   1.404       .  A
C1411      C1420   1.412       .  A
C1411      C1412   1.406       .  A
C1412      C1413   1.405       .  A
C1412      H1423   1.083       .  S
C1413      C1414   1.406       .  A
C1413      H1424   1.083       .  S
C1414      C1415   1.413       .  A
C1415      C1416   1.408       .  A
C1415      H1425   1.084       .  S
C1416      C1417   1.404       .  A
C1417      H1426   1.085       .  S
C1418      C1419   1.408       .  A
C1418      H1427   1.085       .  S
C1419      C1420   1.410       .  A
C1420      H1428   1.084       .  S
C1429      C1430   1.400       .  A
C1429      C1434   1.404       .  A
C1429      H1445   1.084       .  S
C1430      C1431   1.404       .  A
C1430      H1446   1.084       .  S
C1431      C1441   1.406       .  A
C1431      C1432   1.412       .  A
C1432      C1438   1.412       .  A
C1432      C1433   1.416       .  A
C1433      C1435   1.413       .  A
C1433      C1434   1.412       .  A
C1434      C1442   1.405       .  A
C1435      C1444   1.408       .  A
C1435      C1436   1.404       .  A
C1436      C1437   1.401       .  A
C1436      H1447   1.084       .  S
C1437      C1438   1.404       .  A
C1437      H1448   1.083       .  S
C1438      C1439   1.407       .  A
C1439      C1440   1.409       .  A
C1439      H1449   1.084       .  S
C1440      C1441   1.409       .  A
C1441      H1450   1.084       .  S
C1442      C1443   1.405       .  A
C1442      H1451   1.085       .  S
C1443      C1444   1.406       .  A
C1444      H1452   1.084       .  S
C1453      C1454   1.402       .  A
C1453      C1458   1.405       .  A
C1453      H1469   1.083       .  S
C1454      C1455   1.405       .  A
C1454      H1470   1.083       .  S
C1455      C1465   1.409       .  A
C1455      C1456   1.413       .  A
C1456      C1462   1.412       .  A
C1456      C1457   1.415       .  A
C1457      C1459   1.411       .  A
C1457      C1458   1.412       .  A
C1458      C1466   1.409       .  A
C1459      C1468   1.402       .  A
C1459      C1460   1.403       .  A
C1460      C1461   1.398       .  A
C1460      H1471   1.084       .  S
C1461      C1462   1.403       .  A
C1461      H1472   1.084       .  S
C1462      C1463   1.403       .  A
C1463      C1464   1.404       .  A
C1463      H1473   1.085       .  S
C1464      C1465   1.406       .  A
C1465      H1474   1.084       .  S
C1466      C1467   1.409       .  A
C1466      H1475   1.084       .  S
C1467      C1468   1.406       .  A
C1468      H1476   1.085       .  S
C1477      C1478   1.402       .  A
C1477      C1482   1.404       .  A
C1477      H1493   1.083       .  S
C1478      C1479   1.406       .  A
C1478      H1494   1.084       .  S
C1479      C1489   1.404       .  A
C1479      C1480   1.408       .  A
C1480      C1486   1.415       .  A
C1480      C1481   1.417       .  A
C1481      C1483   1.408       .  A
C1481      C1482   1.415       .  A
C1482      C1490   1.412       .  A
C1483      C1492   1.404       .  A
C1483      C1484   1.405       .  A
C1484      C1485   1.401       .  A
C1484      H1495   1.083       .  S
C1485      C1486   1.403       .  A
C1485      H1496   1.083       .  S
C1486      C1487   1.411       .  A
C1487      C1488   1.406       .  A
C1487      H1497   1.084       .  S
C1488      C1489   1.413       .  A
C1489      H1498   1.085       .  S
C1490      C1491   1.406       .  A
C1490      H1499   1.084       .  S
C1491      C1492   1.412       .  A
C1492      H1500   1.084       .  S
C1501      C1502   1.401       .  A
C1501      C1506   1.404       .  A
C1501      H1517   1.083       .  S
C1502      C1503   1.405       .  A
C1502      H1518   1.084       .  S
C1503      C1513   1.405       .  A
C1503      C1504   1.409       .  A
C1504      C1510   1.413       .  A
C1504      C1505   1.417       .  A
C1505      C1507   1.410       .  A
C1505      C1506   1.414       .  A
C1506      C1514   1.410       .  A
C1507      C1516   1.406       .  A
C1507      C1508   1.405       .  A
C1508      C1509   1.402       .  A
C1508      H1519   1.083       .  S
C1509      C1510   1.404       .  A
C1509      H1520   1.083       .  S
C1510      C1511   1.410       .  A
C1511      C1512   1.408       .  A
C1511      H1521   1.084       .  S
C1512      C1513   1.409       .  A
C1513      H1522   1.085       .  S
C1514      C1515   1.407       .  A
C1514      H1523   1.084       .  S
C1515      C1516   1.408       .  A
C1516      H1524   1.085       .  S
C1525      C1526   1.400       .  A
C1525      C1530   1.404       .  A
C1525      H1541   1.084       .  S
C1526      C1527   1.403       .  A
C1526      H1542   1.082       .  S
C1527      C1537   1.405       .  A
C1527      C1528   1.412       .  A
C1528      C1534   1.412       .  A
C1528      C1529   1.416       .  A
C1529      C1531   1.412       .  A
C1529      C1530   1.412       .  A
C1530      C1538   1.406       .  A
C1531      C1540   1.407       .  A
C1531      C1532   1.405       .  A
C1532      C1533   1.401       .  A
C1532      H1543   1.084       .  S
C1533      C1534   1.404       .  A
C1533      H1544   1.083       .  S
C1534      C1535   1.408       .  A
C1535      C1536   1.406       .  A
C1535      H1545   1.084       .  S
C1536      C1537   1.405       .  A
C1537      H1546   1.085       .  S
C1538      C1539   1.406       .  A
C1538      H1547   1.085       .  S
C1539      C1540   1.406       .  A
C1540      H1548   1.085       .  S
C1549      C1550   1.398       .  A
C1549      C1554   1.404       .  A
C1549      H1565   1.082       .  S
C1550      C1551   1.403       .  A
C1550      H1566   1.084       .  S
C1551      C1561   1.403       .  A
C1551      C1552   1.413       .  A
C1552      C1558   1.411       .  A
C1552      C1553   1.414       .  A
C1553      C1555   1.415       .  A
C1553      C1554   1.409       .  A
C1554      C1562   1.401       .  A
C1555      C1564   1.411       .  A
C1555      C1556   1.404       .  A
C1556      C1557   1.402       .  A
C1556      H1567   1.083       .  S
C1557      C1558   1.405       .  A
C1557      H1568   1.084       .  S
C1558      C1559   1.405       .  A
C1559      C1560   1.407       .  A
C1559      H1569   1.085       .  S
C1560      C1561   1.404       .  A
C1561      H1570   1.085       .  S
C1562      C1563   1.407       .  A
C1562      H1571   1.085       .  S
C1563      C1564   1.405       .  A
C1564      H1572   1.084       .  S
C1573      C1574   1.403       .  A
C1573      C1578   1.406       .  A
C1573      H1589   1.084       .  S
C1574      C1575   1.405       .  A
C1574      H1590   1.084       .  S
C1575      C1585   1.410       .  A
C1575      C1576   1.412       .  A
C1576      C1582   1.412       .  A
C1576      C1577   1.418       .  A
C1577      C1579   1.412       .  A
C1577      C1578   1.413       .  A
C1578      C1586   1.411       .  A
C1579      C1588   1.406       .  A
C1579      C1580   1.404       .  A
C1580      C1581   1.400       .  A
C1580      H1591   1.084       .  S
C1581      C1582   1.404       .  A
C1581      H1592   1.084       .  S
C1582      C1583   1.406       .  A
C1583      C1584   1.406       .  A
C1583      H1593   1.085       .  S
C1584      C1585   1.407       .  A
C1585      H1594   1.084       .  S
C1586      C1587   1.410       .  A
C1586      H1595   1.085       .  S
C1587      C1588   1.407       .  A
C1588      H1596   1.084       .  S
C1597      C1598   1.400       .  A
C1597      C1602   1.405       .  A
C1597      H1613   1.083       .  S
C1598      C1599   1.403       .  A
C1598      H1614   1.083       .  S
C1599      C1609   1.408       .  A
C1599      C1600   1.414       .  A
C1600      C1606   1.409       .  A
C1600      C1601   1.415       .  A
C1601      C1603   1.414       .  A
C1601      C1602   1.409       .  A
C1602      C1610   1.403       .  A
C1603      C1612   1.408       .  A
C1603      C1604   1.403       .  A
C1604      C1605   1.400       .  A
C1604      H1615   1.083       .  S
C1605      C1606   1.405       .  A
C1605      H1616   1.083       .  S
C1606      C1607   1.403       .  A
C1607      C1608   1.410       .  A
C1607      H1617   1.085       .  S
C1608      C1609   1.404       .  A
C1609      H1618   1.084       .  S
C1610      C1611   1.410       .  A
C1610      H1619   1.085       .  S
C1611      C1612   1.405       .  A
C1612      H1620   1.084       .  S
C1621      C1622   1.400       .  A
C1621      C1626   1.403       .  A
C1621      H1637   1.084       .  S
C1622      C1623   1.405       .  A
C1622      H1638   1.084       .  S
C1623      C1633   1.402       .  A
C1623      C1624   1.408       .  A
C1624      C1630   1.414       .  A
C1624      C1625   1.416       .  A
C1625      C1627   1.409       .  A
C1625      C1626   1.415       .  A
C1626      C1634   1.408       .  A
C1627      C1636   1.404       .  A
C1627      C1628   1.405       .  A
C1628      C1629   1.402       .  A
C1628      H1639   1.084       .  S
C1629      C1630   1.404       .  A
C1629      H1640   1.083       .  S
C1630      C1631   1.412       .  A
C1631      C1632   1.408       .  A
C1631      H1641   1.084       .  S
C1632      C1633   1.413       .  A
C1633      H1642   1.083       .  S
C1634      C1635   1.404       .  A
C1634      H1643   1.084       .  S
C1635      C1636   1.409       .  A
C1636      H1644   1.085       .  S
C1645      C1646   1.402       .  A
C1645      C1650   1.404       .  A
C1645      H1661   1.083       .  S
C1646      C1647   1.405       .  A
C1646      H1662   1.083       .  S
C1647      C1657   1.408       .  A
C1647      C1648   1.411       .  A
C1648      C1654   1.411       .  A
C1648      C1649   1.415       .  A
C1649      C1651   1.410       .  A
C1649      C1650   1.414       .  A
C1650      C1658   1.410       .  A
C1651      C1660   1.400       .  A
C1651      C1652   1.403       .  A
C1652      C1653   1.399       .  A
C1652      H1663   1.084   1_545  S
C1653      C1654   1.404       .  A
C1653      H1664   1.084   1_545  S
C1654      C1655   1.404       .  A
C1655      C1656   1.409       .  A
C1655      H1665   1.084       .  S
C1656      C1657   1.408       .  A
C1657      H1666   1.080       .  S
C1658      C1659   1.406       .  A
C1658      H1667   1.084       .  S
C1659      C1660   1.408       .  A
C1660      H1668   1.085       .  S
C1669      C1670   1.401       .  A
C1669      C1674   1.405       .  A
C1669      H1685   1.083       .  S
C1670      C1671   1.404       .  A
C1670      H1686   1.083       .  S
C1671      C1681   1.409       .  A
C1671      C1672   1.414       .  A
C1672      C1678   1.410       .  A
C1672      C1673   1.416       .  A
C1673      C1675   1.414       .  A
C1673      C1674   1.410       .  A
C1674      C1682   1.405       .  A
C1675      C1684   1.408       .  A
C1675      C1676   1.404       .  A
C1676      C1677   1.401       .  A
C1676      H1687   1.083       .  S
C1677      C1678   1.404       .  A
C1677      H1688   1.084       .  S
C1678      C1679   1.405       .  A
C1679      C1680   1.407       .  A
C1679      H1689   1.085       .  S
C1680      C1681   1.405       .  A
C1681      H1690   1.084       .  S
C1682      C1683   1.407       .  A
C1682      H1691   1.084       .  S
C1683      C1684   1.405       .  A
C1684      H1692   1.084   1_565  S
C1693      C1694   1.401       .  A
C1693      C1698   1.404       .  A
C1693      H1709   1.083       .  S
C1694      C1695   1.405       .  A
C1694      H1710   1.083       .  S
C1695      C1705   1.405       .  A
C1695      C1696   1.410       .  A
C1696      C1702   1.414       .  A
C1696      C1697   1.417       .  A
C1697      C1699   1.410       .  A
C1697      C1698   1.414       .  A
C1698      C1706   1.409       .  A
C1699      C1708   1.406       .  A
C1699      C1700   1.405       .  A
C1700      C1701   1.402       .  A
C1700      H1711   1.083       .  S
C1701      C1702   1.404       .  A
C1701      H1712   1.083       .  S
C1702      C1703   1.410       .  A
C1703      C1704   1.406       .  A
C1703      H1713   1.084       .  S
C1704      C1705   1.409       .  A
C1705      H1714   1.085       .  S
C1706      C1707   1.406       .  A
C1706      H1715   1.084       .  S
C1707      C1708   1.408       .  A
C1708      H1716   1.085       .  S
C1717      C1718   1.401       .  A
C1717      C1722   1.405       .  A
C1717      H1733   1.084       .  S
C1718      C1719   1.404       .  A
C1718      H1734   1.083       .  S
C1719      C1729   1.411       .  A
C1719      C1720   1.415       .  A
C1720      C1726   1.408       .  A
C1720      C1721   1.417       .  A
C1721      C1723   1.414       .  A
C1721      C1722   1.406       .  A
C1722      C1730   1.403       .  A
C1723      C1732   1.411       .  A
C1723      C1724   1.403       .  A
C1724      C1725   1.402       .  A
C1724      H1735   1.083       .  S
C1725      C1726   1.405       .  A
C1725      H1736   1.083       .  S
C1726      C1727   1.405       .  A
C1727      C1728   1.412       .  A
C1727      H1737   1.084       .  S
C1728      C1729   1.408       .  A
C1729      H1738   1.084       .  S
C1730      C1731   1.415       .  A
C1730      H1739   1.082       .  S
C1731      C1732   1.409       .  A
C1732      H1740   1.083       .  S
C1741      C1742   1.400       .  A
C1741      C1746   1.404       .  A
C1741      H1757   1.084       .  S
C1742      C1743   1.404       .  A
C1742      H1758   1.084       .  S
C1743      C1753   1.406       .  A
C1743      C1744   1.412       .  A
C1744      C1750   1.413       .  A
C1744      C1745   1.415       .  A
C1745      C1747   1.412       .  A
C1745      C1746   1.412       .  A
C1746      C1754   1.405       .  A
C1747      C1756   1.406       .  A
C1747      C1748   1.404       .  A
C1748      C1749   1.401       .  A
C1748      H1759   1.084       .  S
C1749      C1750   1.404       .  A
C1749      H1760   1.084       .  S
C1750      C1751   1.408       .  A
C1751      C1752   1.407       .  A
C1751      H1761   1.085       .  S
C1752      C1753   1.407       .  A
C1753      H1762   1.084       .  S
C1754      C1755   1.406       .  A
C1754      H1763   1.085       .  S
C1755      C1756   1.405       .  A
C1756      H1764   1.085       .  S
C1765      C1766   1.400       .  A
C1765      C1770   1.403       .  A
C1765      H1781   1.083       .  S
C1766      C1767   1.404       .  A
C1766      H1782   1.083       .  S
C1767      C1777   1.403       .  A
C1767      C1768   1.409       .  A
C1768      C1774   1.415       .  A
C1768      C1769   1.416       .  A
C1769      C1771   1.408       .  A
C1769      C1770   1.414       .  A
C1770      C1778   1.409       .  A
C1771      C1780   1.405       .  A
C1771      C1772   1.406       .  A
C1772      C1773   1.402       .  A
C1772      H1783   1.083       .  S
C1773      C1774   1.404       .  A
C1773      H1784   1.083       .  S
C1774      C1775   1.411       .  A
C1775      C1776   1.406       .  A
C1775      H1785   1.084       .  S
C1776      C1777   1.409       .  A
C1777      H1786   1.085       .  S
C1778      C1779   1.405       .  A
C1778      H1787   1.084       .  S
C1779      C1780   1.412       .  A
C1780      H1788   1.084       .  S
C1789      C1790   1.401       .  A
C1789      C1794   1.405       .  A
C1789      H1805   1.084       .  S
C1790      C1791   1.405       .  A
C1790      H1806   1.084       .  S
C1791      C1801   1.406       .  A
C1791      C1792   1.412       .  A
C1792      C1798   1.413       .  A
C1792      C1793   1.415       .  A
C1793      C1795   1.412       .  A
C1793      C1794   1.412       .  A
C1794      C1802   1.407       .  A
C1795      C1804   1.404       .  A
C1795      C1796   1.404       .  A
C1796      C1797   1.400       .  A
C1796      H1807   1.084       .  S
C1797      C1798   1.404       .  A
C1797      H1808   1.083       .  S
C1798      C1799   1.407       .  A
C1799      C1800   1.406       .  A
C1799      H1809   1.084       .  S
C1800      C1801   1.408       .  A
C1801      H1810   1.085       .  S
C1802      C1803   1.406       .  A
C1802      H1811   1.084       .  S
C1803      C1804   1.405       .  A
C1804      H1812   1.085       .  S
C1813      C1814   1.402       .  A
C1813      C1818   1.405       .  A
C1813      H1829   1.084       .  S
C1814      C1815   1.405       .  A
C1814      H1830   1.083       .  S
C1815      C1825   1.409       .  A
C1815      C1816   1.410       .  A
C1816      C1822   1.413       .  A
C1816      C1817   1.423       .  A
C1817      C1819   1.412       .  A
C1817      C1818   1.412       .  A
C1818      C1826   1.411       .  A
C1819      C1828   1.416       .  A
C1819      C1820   1.406   1_655  A
C1820      C1821   1.406   1_455  A
C1820      H1831   1.083       .  S
C1821      C1822   1.406       .  A
C1821      H1832   1.083   1_655  S
C1822      C1823   1.418       .  A
C1823      C1824   1.413       .  A
C1823      H1833   1.083       .  S
C1824      C1825   1.414       .  A
C1825      H1834   1.083       .  S
C1826      C1827   1.411       .  A
C1826      H1835   1.084       .  S
C1827      C1828   1.412       .  A
C1828      H1836   1.084       .  S
C1837      C1838   1.401       .  A
C1837      C1842   1.405       .  A
C1837      H1853   1.084       .  S
C1838      C1839   1.404       .  A
C1838      H1854   1.083       .  S
C1839      C1849   1.414       .  A
C1839      C1840   1.416       .  A
C1840      C1846   1.407       .  A
C1840      C1841   1.418       .  A
C1841      C1843   1.416       .  A
C1841      C1842   1.408       .  A
C1842      C1850   1.403       .  A
C1843      C1852   1.414       .  A
C1843      C1844   1.404       .  A
C1844      C1845   1.403       .  A
C1844      H1855   1.083       .  S
C1845      C1846   1.406       .  A
C1845      H1856   1.084       .  S
C1846      C1847   1.406       .  A
C1847      C1848   1.413       .  A
C1847      H1857   1.084       .  S
C1848      C1849   1.407       .  A
C1849      H1858   1.084       .  S
C1850      C1851   1.410       .  A
C1850      H1859   1.085       .  S
C1851      C1852   1.408       .  A
C1852      H1860   1.084       .  S
C1861      C1862   1.403       .  A
C1861      C1866   1.406       .  A
C1861      H1877   1.084       .  S
C1862      C1863   1.405       .  A
C1862      H1878   1.084       .  S
C1863      C1873   1.410       .  A
C1863      C1864   1.411       .  A
C1864      C1870   1.412       .  A
C1864      C1865   1.421       .  A
C1865      C1867   1.412       .  A
C1865      C1866   1.412       .  A
C1866      C1874   1.412       .  A
C1867      C1876   1.412       .  A
C1867      C1868   1.405       .  A
C1868      C1869   1.403       .  A
C1868      H1879   1.083       .  S
C1869      C1870   1.405       .  A
C1869      H1880   1.083       .  S
C1870      C1871   1.412       .  A
C1871      C1872   1.409       .  A
C1871      H1881   1.084       .  S
C1872      C1873   1.411       .  A
C1873      H1882   1.084       .  S
C1874      C1875   1.410       .  A
C1874      H1883   1.085       .  S
C1875      C1876   1.408       .  A
C1876      H1884   1.084       .  S
C1885      C1886   1.401       .  A
C1885      C1890   1.404       .  A
C1885      H1901   1.084       .  S
C1886      C1887   1.404       .  A
C1886      H1902   1.083       .  S
C1887      C1897   1.411       .  A
C1887      C1888   1.415       .  A
C1888      C1894   1.408       .  A
C1888      C1889   1.416       .  A
C1889      C1891   1.414       .  A
C1889      C1890   1.409       .  A
C1890      C1898   1.404       .  A
C1891      C1900   1.409       .  A
C1891      C1892   1.403       .  A
C1892      C1893   1.401       .  A
C1892      H1903   1.084       .  S
C1893      C1894   1.406       .  A
C1893      H1904   1.083       .  S
C1894      C1895   1.405       .  A
C1895      C1896   1.412       .  A
C1895      H1905   1.084       .  S
C1896      C1897   1.406       .  A
C1897      H1906   1.084       .  S
C1898      C1899   1.409       .  A
C1898      H1907   1.085       .  S
C1899      C1900   1.405       .  A
C1900      H1908   1.084       .  S
C1909      C1910   1.400       .  A
C1909      C1914   1.404       .  A
C1909      H1925   1.083       .  S
C1910      C1911   1.403       .  A
C1910      H1926   1.083       .  S
C1911      C1921   1.405       .  A
C1911      C1912   1.411       .  A
C1912      C1918   1.412       .  A
C1912      C1913   1.417       .  A
C1913      C1915   1.412       .  A
C1913      C1914   1.412       .  A
C1914      C1922   1.405       .  A
C1915      C1924   1.410       .  A
C1915      C1916   1.405       .  A
C1916      C1917   1.403       .  A
C1916      H1927   1.084       .  S
C1917      C1918   1.405       .  A
C1917      H1928   1.081       .  S
C1918      C1919   1.411       .  A
C1919      C1920   1.411       .  A
C1919      H1929   1.084       .  S
C1920      C1921   1.407       .  A
C1921      H1930   1.084       .  S
C1922      C1923   1.406       .  A
C1922      H1931   1.085       .  S
C1923      C1924   1.408       .  A
C1924      H1932   1.084       .  S
C1933      C1934   1.405       .  A
C1933      C1938   1.406       .  A
C1933      H1949   1.084       .  S
C1934      C1935   1.406       .  A
C1934      H1950   1.083       .  S
C1935      C1945   1.414       .  A
C1935      C1936   1.412       .  A
C1936      C1942   1.411       .  A
C1936      C1937   1.420       .  A
C1937      C1939   1.411       .  A
C1937      C1938   1.412       .  A
C1938      C1946   1.415       .  A
C1939      C1948   1.407       .  A
C1939      C1940   1.404       .  A
C1940      C1941   1.400       .  A
C1940      H1951   1.084   1_545  S
C1941      C1942   1.404       .  A
C1941      H1952   1.083   1_545  S
C1942      C1943   1.407       .  A
C1943      C1944   1.409       .  A
C1943      H1953   1.084       .  S
C1944      C1945   1.411       .  A
C1945      H1954   1.083       .  S
C1946      C1947   1.413       .  A
C1946      H1955   1.084       .  S
C1947      C1948   1.409       .  A
C1948      H1956   1.084       .  S
C1957      C1958   1.401       .  A
C1957      C1962   1.404       .  A
C1957      H1973   1.084       .  S
C1958      C1959   1.404       .  A
C1958      H1974   1.084       .  S
C1959      C1969   1.404       .  A
C1959      C1960   1.410       .  A
C1960      C1966   1.413       .  A
C1960      C1961   1.415       .  A
C1961      C1963   1.411       .  A
C1961      C1962   1.413       .  A
C1962      C1970   1.408       .  A
C1963      C1972   1.405       .  A
C1963      C1964   1.404       .  A
C1964      C1965   1.401       .  A
C1964      H1975   1.084       .  S
C1965      C1966   1.404       .  A
C1965      H1976   1.083       .  S
C1966      C1967   1.408       .  A
C1967      C1968   1.407       .  A
C1967      H1977   1.084       .  S
C1968      C1969   1.408       .  A
C1969      H1978   1.085       .  S
C1970      C1971   1.405       .  A
C1970      H1979   1.085       .  S
C1971      C1972   1.405       .  A
C1972      H1980   1.085       .  S
C1981      C1982   1.399       .  A
C1981      C1986   1.403       .  A
C1981      H1997   1.083       .  S
C1982      C1983   1.404       .  A
C1982      H1998   1.083       .  S
C1983      C1993   1.402       .  A
C1983      C1984   1.409       .  A
C1984      C1990   1.415       .  A
C1984      C1985   1.415       .  A
C1985      C1987   1.409       .  A
C1985      C1986   1.414       .  A
C1986      C1994   1.407       .  A
C1987      C1996   1.405       .  A
C1987      C1988   1.405       .  A
C1988      C1989   1.402       .  A
C1988      H1999   1.084       .  S
C1989      C1990   1.404       .  A
C1989      H2000   1.083       .  S
C1990      C1991   1.411       .  A
C1991      C1992   1.406       .  A
C1991      H2001   1.084       .  S
C1992      C1993   1.408       .  A
C1993      H2002   1.085       .  S
C1994      C1995   1.404       .  A
C1994      H2003   1.084       .  S
C1995      C1996   1.410       .  A
C1996      H2004   1.085       .  S
C2005      C2006   1.404       .  A
C2005      C2010   1.405       .  A
C2005      H2021   1.083       .  S
C2006      C2007   1.406   1_455  A
C2006      H2022   1.083       .  S
C2007      C2017   1.413       .  A
C2007      C2008   1.410       .  A
C2008      C2014   1.409       .  A
C2008      C2009   1.419       .  A
C2009      C2011   1.412       .  A
C2009      C2010   1.413   1_655  A
C2010      C2018   1.412       .  A
C2011      C2020   1.406       .  A
C2011      C2012   1.403       .  A
C2012      C2013   1.400       .  A
C2012      H2023   1.084       .  S
C2013      C2014   1.405       .  A
C2013      H2024   1.084       .  S
C2014      C2015   1.405       .  A
C2015      C2016   1.415       .  A
C2015      H2025   1.080       .  S
C2016      C2017   1.416       .  A
C2017      H2026   1.078   1_655  S
C2018      C2019   1.408   1_455  A
C2018      H2027   1.084       .  S
C2019      C2020   1.406       .  A
C2020      H2028   1.085       .  S
C2029      C2030   1.398       .  A
C2029      C2034   1.403       .  A
C2029      H2045   1.084       .  S
C2030      C2031   1.402       .  A
C2030      H2046   1.084       .  S
C2031      C2041   1.402       .  A
C2031      C2032   1.413       .  A
C2032      C2038   1.412       .  A
C2032      C2033   1.411       .  A
C2033      C2035   1.413       .  A
C2033      C2034   1.412       .  A
C2034      C2042   1.401       .  A
C2035      C2044   1.405       .  A
C2035      C2036   1.405       .  A
C2036      C2037   1.400       .  A
C2036      H2047   1.084       .  S
C2037      C2038   1.404       .  A
C2037      H2048   1.084       .  S
C2038      C2039   1.403       .  A
C2039      C2040   1.404       .  A
C2039      H2049   1.085       .  S
C2040      C2041   1.402       .  A
C2041      H2050   1.085       .  S
C2042      C2043   1.402       .  A
C2042      H2051   1.085       .  S
C2043      C2044   1.405       .  A
C2044      H2052   1.084       .  S
C2053      C2054   1.402       .  A
C2053      C2058   1.405       .  A
C2053      H2069   1.083       .  S
C2054      C2055   1.405       .  A
C2054      H2070   1.084       .  S
C2055      C2065   1.408       .  A
C2055      C2056   1.414       .  A
C2056      C2062   1.412       .  A
C2056      C2057   1.411       .  A
C2057      C2059   1.411       .  A
C2057      C2058   1.413       .  A
C2058      C2066   1.408       .  A
C2059      C2068   1.397       .  A
C2059      C2060   1.402       .  A
C2060      C2061   1.395       .  A
C2060      H2071   1.084       .  S
C2061      C2062   1.401       .  A
C2061      H2072   1.084       .  S
C2062      C2063   1.396       .  A
C2063      C2064   1.401       .  A
C2063      H2073   1.085       .  S
C2064      C2065   1.405       .  A
C2065      H2074   1.084       .  S
C2066      C2067   1.406       .  A
C2066      H2075   1.084       .  S
C2067      C2068   1.403       .  A
C2068      H2076   1.085       .  S
C2077      C2078   1.402       .  A
C2077      C2082   1.405       .  A
C2077      H2093   1.083       .  S
C2078      C2079   1.404       .  A
C2078      H2094   1.083       .  S
C2079      C2089   1.408       .  A
C2079      C2080   1.413       .  A
C2080      C2086   1.411       .  A
C2080      C2081   1.415       .  A
C2081      C2083   1.411       .  A
C2081      C2082   1.411       .  A
C2082      C2090   1.407       .  A
C2083      C2092   1.405       .  A
C2083      C2084   1.404       .  A
C2084      C2085   1.399       .  A
C2084      H2095   1.084       .  S
C2085      C2086   1.403       .  A
C2085      H2096   1.084       .  S
C2086      C2087   1.402       .  A
C2087      C2088   1.405       .  A
C2087      H2097   1.084       .  S
C2088      C2089   1.405       .  A
C2089      H2098   1.083       .  S
C2090      C2091   1.410       .  A
C2090      H2099   1.084       .  S
C2091      C2092   1.410       .  A
C2092      H2100   1.084       .  S
C2101      C2102   1.399       .  A
C2101      C2106   1.403       .  A
C2101      H2117   1.084       .  S
C2102      C2103   1.403       .  A
C2102      H2118   1.083       .  S
C2103      C2113   1.405       .  A
C2103      C2104   1.413       .  A
C2104      C2110   1.411       .  A
C2104      C2105   1.415       .  A
C2105      C2107   1.413       .  A
C2105      C2106   1.412       .  A
C2106      C2114   1.402       .  A
C2107      C2116   1.409       .  A
C2107      C2108   1.405       .  A
C2108      C2109   1.402       .  A
C2108      H2119   1.084       .  S
C2109      C2110   1.406       .  A
C2109      H2120   1.084       .  S
C2110      C2111   1.407       .  A
C2111      C2112   1.410       .  A
C2111      H2121   1.085       .  S
C2112      C2113   1.405       .  A
C2113      H2122   1.084       .  S
C2114      C2115   1.404       .  A
C2114      H2123   1.085       .  S
C2115      C2116   1.408       .  A
C2116      H2124   1.084       .  S
C2125      C2126   1.401       .  A
C2125      C2130   1.404       .  A
C2125      H2141   1.083       .  S
C2126      C2127   1.404       .  A
C2126      H2142   1.083       .  S
C2127      C2137   1.405       .  A
C2127      C2128   1.409       .  A
C2128      C2134   1.414       .  A
C2128      C2129   1.419       .  A
C2129      C2131   1.410       .  A
C2129      C2130   1.414       .  A
C2130      C2138   1.410       .  A
C2131      C2140   1.410       .  A
C2131      C2132   1.406       .  A
C2132      C2133   1.404       .  A
C2132      H2143   1.083       .  S
C2133      C2134   1.405       .  A
C2133      H2144   1.083       .  S
C2134      C2135   1.413       .  A
C2135      C2136   1.409       .  A
C2135      H2145   1.084       .  S
C2136      C2137   1.410       .  A
C2137      H2146   1.084       .  S
C2138      C2139   1.406       .  A
C2138      H2147   1.084       .  S
C2139      C2140   1.413       .  A
C2140      H2148   1.084       .  S
C2149      C2150   1.404       .  A
C2149      C2154   1.405       .  A
C2149      H2165   1.084       .  S
C2150      C2151   1.405       .  A
C2150      H2166   1.083       .  S
C2151      C2161   1.411       .  A
C2151      C2152   1.412       .  A
C2152      C2158   1.411   1_655  A
C2152      C2153   1.419       .  A
C2153      C2155   1.411   1_655  A
C2153      C2154   1.413       .  A
C2154      C2162   1.412       .  A
C2155      C2164   1.407       .  A
C2155      C2156   1.404       .  A
C2156      C2157   1.401       .  A
C2156      H2167   1.083       .  S
C2157      C2158   1.405       .  A
C2157      H2168   1.084       .  S
C2158      C2159   1.408       .  A
C2159      C2160   1.412   1_455  A
C2159      H2169   1.084       .  S
C2160      C2161   1.409       .  A
C2161      H2170   1.082       .  S
C2162      C2163   1.410       .  A
C2162      H2171   1.084       .  S
C2163      C2164   1.410   1_655  A
C2164      H2172   1.084       .  S
C2173      C2174   1.401       .  A
C2173      C2178   1.404       .  A
C2173      H2189   1.083       .  S
C2174      C2175   1.405       .  A
C2174      H2190   1.084       .  S
C2175      C2185   1.406       .  A
C2175      C2176   1.410       .  A
C2176      C2182   1.414       .  A
C2176      C2177   1.419       .  A
C2177      C2179   1.411       .  A
C2177      C2178   1.413       .  A
C2178      C2186   1.410       .  A
C2179      C2188   1.412       .  A
C2179      C2180   1.406       .  A
C2180      C2181   1.404       .  A
C2180      H2191   1.083       .  S
C2181      C2182   1.405       .  A
C2181      H2192   1.083       .  S
C2182      C2183   1.414       .  A
C2183      C2184   1.409       .  A
C2183      H2193   1.084       .  S
C2184      C2185   1.411       .  A
C2185      H2194   1.085       .  S
C2186      C2187   1.407       .  A
C2186      H2195   1.085       .  S
C2187      C2188   1.411       .  A
C2188      H2196   1.084       .  S
C2197      C2198   1.401       .  A
C2197      C2202   1.406       .  A
C2197      H2213   1.083       .  S
C2198      C2199   1.403       .  A
C2198      H2214   1.083       .  S
C2199      C2209   1.411       .  A
C2199      C2200   1.415       .  A
C2200      C2206   1.409       .  A
C2200      C2201   1.419       .  A
C2201      C2203   1.415       .  A
C2201      C2202   1.408       .  A
C2202      C2210   1.405       .  A
C2203      C2212   1.415       .  A
C2203      C2204   1.405       .  A
C2204      C2205   1.404       .  A
C2204      H2215   1.083       .  S
C2205      C2206   1.406       .  A
C2205      H2216   1.083       .  S
C2206      C2207   1.409       .  A
C2207      C2208   1.411       .  A
C2207      H2217   1.085       .  S
C2208      C2209   1.406       .  A
C2209      H2218   1.084       .  S
C2210      C2211   1.413       .  A
C2210      H2219   1.084       .  S
C2211      C2212   1.409       .  A
C2212      H2220   1.084       .  S
C2221      C2222   1.401       .  A
C2221      C2226   1.404       .  A
C2221      H2237   1.083       .  S
C2222      C2223   1.405       .  A
C2222      H2238   1.084       .  S
C2223      C2233   1.410       .  A
C2223      C2224   1.409   1_455  A
C2224      C2230   1.408       .  A
C2224      C2225   1.423       .  A
C2225      C2227   1.413       .  A
C2225      C2226   1.411   1_655  A
C2226      C2234   1.409       .  A
C2227      C2236   1.417       .  A
C2227      C2228   1.406       .  A
C2228      C2229   1.406       .  A
C2228      H2239   1.083       .  S
C2229      C2230   1.408       .  A
C2229      H2240   1.084       .  S
C2230      C2231   1.415       .  A
C2231      C2232   1.422       .  A
C2231      H2241   1.076       .  S
C2232      C2233   1.419   1_655  A
C2233      H2242   1.077       .  S
C2234      C2235   1.408   1_455  A
C2234      H2243   1.085       .  S
C2235      C2236   1.411       .  A
C2236      H2244   1.084       .  S
C2245      C2246   1.402       .  A
C2245      C2250   1.405       .  A
C2245      H2261   1.084       .  S
C2246      C2247   1.404       .  A
C2246      H2262   1.083       .  S
C2247      C2257   1.413       .  A
C2247      C2248   1.415       .  A
C2248      C2254   1.408       .  A
C2248      C2249   1.418       .  A
C2249      C2251   1.415       .  A
C2249      C2250   1.408       .  A
C2250      C2258   1.404       .  A
C2251      C2260   1.412       .  A
C2251      C2252   1.404       .  A
C2252      C2253   1.402       .  A
C2252      H2263   1.083       .  S
C2253      C2254   1.405       .  A
C2253      H2264   1.083       .  S
C2254      C2255   1.405       .  A
C2255      C2256   1.411       .  A
C2255      H2265   1.084       .  S
C2256      C2257   1.408       .  A
C2257      H2266   1.084       .  S
C2258      C2259   1.411       .  A
C2258      H2267   1.084       .  S
C2259      C2260   1.407       .  A
C2260      H2268   1.084       .  S
C2269      C2270   1.402       .  A
C2269      C2274   1.405       .  A
C2269      H2285   1.084       .  S
C2270      C2271   1.405       .  A
C2270      H2286   1.083       .  S
C2271      C2281   1.409       .  A
C2271      C2272   1.413       .  A
C2272      C2278   1.411       .  A
C2272      C2273   1.414       .  A
C2273      C2275   1.412       .  A
C2273      C2274   1.411       .  A
C2274      C2282   1.406       .  A
C2275      C2284   1.404       .  A
C2275      C2276   1.403       .  A
C2276      C2277   1.398       .  A
C2276      H2287   1.084       .  S
C2277      C2278   1.403       .  A
C2277      H2288   1.084       .  S
C2278      C2279   1.402       .  A
C2279      C2280   1.404       .  A
C2279      H2289   1.085       .  S
C2280      C2281   1.407       .  A
C2281      H2290   1.084       .  S
C2282      C2283   1.408       .  A
C2282      H2291   1.084       .  S
C2283      C2284   1.407       .  A
C2284      H2292   1.084       .  S
C2293      C2294   1.405       .  A
C2293      C2298   1.406       .  A
C2293      H2309   1.083       .  S
C2294      C2295   1.406       .  A
C2294      H2310   1.084       .  S
C2295      C2305   1.411       .  A
C2295      C2296   1.412       .  A
C2296      C2302   1.412       .  A
C2296      C2297   1.416       .  A
C2297      C2299   1.410       .  A
C2297      C2298   1.412       .  A
C2298      C2306   1.413       .  A
C2299      C2308   1.401       .  A
C2299      C2300   1.403   1_545  A
C2300      C2301   1.397   1_565  A
C2300      H2311   1.084       .  S
C2301      C2302   1.402       .  A
C2301      H2312   1.084   1_545  S
C2302      C2303   1.402       .  A
C2303      C2304   1.405       .  A
C2303      H2313   1.085       .  S
C2304      C2305   1.410       .  A
C2305      H2314   1.084       .  S
C2306      C2307   1.412       .  A
C2306      H2315   1.083       .  S
C2307      C2308   1.408       .  A
C2308      H2316   1.083       .  S
C2317      C2318   1.400       .  A
C2317      C2322   1.404       .  A
C2317      H2333   1.083       .  S
C2318      C2319   1.404       .  A
C2318      H2334   1.084       .  S
C2319      C2329   1.406       .  A
C2319      C2320   1.412       .  A
C2320      C2326   1.412       .  A
C2320      C2321   1.416       .  A
C2321      C2323   1.413       .  A
C2321      C2322   1.412       .  A
C2322      C2330   1.406       .  A
C2323      C2332   1.409       .  A
C2323      C2324   1.405       .  A
C2324      C2325   1.401       .  A
C2324      H2335   1.083       .  S
C2325      C2326   1.404       .  A
C2325      H2336   1.084       .  S
C2326      C2327   1.406       .  A
C2327      C2328   1.406       .  A
C2327      H2337   1.085       .  S
C2328      C2329   1.406       .  A
C2329      H2338   1.085       .  S
C2330      C2331   1.406       .  A
C2330      H2339   1.085       .  S
C2331      C2332   1.407       .  A
C2332      H2340   1.084       .  S
C2341      C2342   1.402       .  A
C2341      C2346   1.405       .  A
C2341      H2357   1.084       .  S
C2342      C2343   1.404       .  A
C2342      H2358   1.083       .  S
C2343      C2353   1.412       .  A
C2343      C2344   1.415       .  A
C2344      C2350   1.408       .  A
C2344      C2345   1.416       .  A
C2345      C2347   1.415       .  A
C2345      C2346   1.408       .  A
C2346      C2354   1.404       .  A
C2347      C2356   1.409       .  A
C2347      C2348   1.403       .  A
C2348      C2349   1.400       .  A
C2348      H2359   1.083       .  S
C2349      C2350   1.405       .  A
C2349      H2360   1.083       .  S
C2350      C2351   1.403       .  A
C2351      C2352   1.412       .  A
C2351      H2361   1.084       .  S
C2352      C2353   1.408       .  A
C2353      H2362   1.084       .  S
C2354      C2355   1.412       .  A
C2354      H2363   1.085       .  S
C2355      C2356   1.405       .  A
C2356      H2364   1.084       .  S
C2365      C2366   1.403       .  A
C2365      C2370   1.406       .  A
C2365      H2381   1.083       .  S
C2366      C2367   1.405       .  A
C2366      H2382   1.083       .  S
C2367      C2377   1.411       .  A
C2367      C2368   1.413   1_554  A
C2368      C2374   1.411       .  A
C2368      C2369   1.417       .  A
C2369      C2371   1.411       .  A
C2369      C2370   1.411   1_556  A
C2370      C2378   1.410       .  A
C2371      C2380   1.405       .  A
C2371      C2372   1.404       .  A
C2372      C2373   1.399       .  A
C2372      H2383   1.084       .  S
C2373      C2374   1.404       .  A
C2373      H2384   1.084       .  S
C2374      C2375   1.403       .  A
C2375      C2376   1.408       .  A
C2375      H2385   1.085       .  S
C2376      C2377   1.408   1_556  A
C2377      H2386   1.084       .  S
C2378      C2379   1.410   1_554  A
C2378      H2387   1.080       .  S
C2379      C2380   1.409       .  A
C2380      H2388   1.084       .  S
C2389      C2390   1.403       .  A
C2389      C2394   1.405       .  A
C2389      H2405   1.084       .  S
C2390      C2391   1.405       .  A
C2390      H2406   1.083       .  S
C2391      C2401   1.410       .  A
C2391      C2392   1.412       .  A
C2392      C2398   1.411       .  A
C2392      C2393   1.416       .  A
C2393      C2395   1.412       .  A
C2393      C2394   1.411       .  A
C2394      C2402   1.408       .  A
C2395      C2404   1.406       .  A
C2395      C2396   1.403       .  A
C2396      C2397   1.400       .  A
C2396      H2407   1.084       .  S
C2397      C2398   1.403       .  A
C2397      H2408   1.084       .  S
C2398      C2399   1.404       .  A
C2399      C2400   1.406       .  A
C2399      H2409   1.085       .  S
C2400      C2401   1.409       .  A
C2401      H2410   1.085       .  S
C2402      C2403   1.407       .  A
C2402      H2411   1.084       .  S
C2403      C2404   1.405       .  A
C2404      H2412   1.085       .  S
C2413      C2414   1.400       .  A
C2413      C2418   1.403       .  A
C2413      H2429   1.083       .  S
C2414      C2415   1.404       .  A
C2414      H2430   1.083       .  S
C2415      C2425   1.403       .  A
C2415      C2416   1.410       .  A
C2416      C2422   1.414       .  A
C2416      C2417   1.414       .  A
C2417      C2419   1.410       .  A
C2417      C2418   1.414       .  A
C2418      C2426   1.407       .  A
C2419      C2428   1.404       .  A
C2419      C2420   1.405       .  A
C2420      C2421   1.401       .  A
C2420      H2431   1.084       .  S
C2421      C2422   1.404       .  A
C2421      H2432   1.084       .  S
C2422      C2423   1.408       .  A
C2423      C2424   1.405       .  A
C2423      H2433   1.084       .  S
C2424      C2425   1.408       .  A
C2425      H2434   1.085       .  S
C2426      C2427   1.404       .  A
C2426      H2435   1.084       .  S
C2427      C2428   1.408       .  A
C2428      H2436   1.085       .  S
C2437      C2438   1.409       .  A
C2437      C2442   1.408       .  A
C2437      H2453   1.083       .  S
C2438      C2439   1.407       .  A
C2438      H2454   1.083       .  S
C2439      C2449   1.421       .  A
C2439      C2440   1.414       .  A
C2440      C2446   1.410   1_554  A
C2440      C2441   1.422       .  A
C2441      C2443   1.411   1_554  A
C2441      C2442   1.412       .  A
C2442      C2450   1.420       .  A
C2443      C2452   1.406       .  A
C2443      C2444   1.404       .  A
C2444      C2445   1.399       .  A
C2444      H2455   1.084       .  S
C2445      C2446   1.403       .  A
C2445      H2456   1.084       .  S
C2446      C2447   1.403       .  A
C2447      C2448   1.409   1_556  A
C2447      H2457   1.084       .  S
C2448      C2449   1.412       .  A
C2449      H2458   1.083       .  S
C2450      C2451   1.415       .  A
C2450      H2459   1.084       .  S
C2451      C2452   1.412   1_554  A
C2452      H2460   1.084       .  S
C2461      C2462   1.400       .  A
C2461      C2466   1.404       .  A
C2461      H2477   1.084       .  S
C2462      C2463   1.404       .  A
C2462      H2478   1.083       .  S
C2463      C2473   1.407       .  A
C2463      C2464   1.413       .  A
C2464      C2470   1.412       .  A
C2464      C2465   1.415       .  A
C2465      C2467   1.413       .  A
C2465      C2466   1.412       .  A
C2466      C2474   1.404       .  A
C2467      C2476   1.407       .  A
C2467      C2468   1.404       .  A
C2468      C2469   1.401       .  A
C2468      H2479   1.084       .  S
C2469      C2470   1.405       .  A
C2469      H2480   1.083       .  S
C2470      C2471   1.407       .  A
C2471      C2472   1.410       .  A
C2471      H2481   1.085       .  S
C2472      C2473   1.407       .  A
C2473      H2482   1.084       .  S
C2474      C2475   1.405       .  A
C2474      H2483   1.085       .  S
C2475      C2476   1.406       .  A
C2476      H2484   1.084       .  S
C2485      C2486   1.401       .  A
C2485      C2490   1.404       .  A
C2485      H2501   1.083       .  S
C2486      C2487   1.405       .  A
C2486      H2502   1.083       .  S
C2487      C2497   1.404       .  A
C2487      C2488   1.410       .  A
C2488      C2494   1.414       .  A
C2488      C2489   1.415       .  A
C2489      C2491   1.409       .  A
C2489      C2490   1.415       .  A
C2490      C2498   1.410       .  A
C2491      C2500   1.402       .  A
C2491      C2492   1.404       .  A
C2492      C2493   1.400       .  A
C2492      H2503   1.084       .  S
C2493      C2494   1.403       .  A
C2493      H2504   1.084       .  S
C2494      C2495   1.408       .  A
C2495      C2496   1.405       .  A
C2495      H2505   1.084       .  S
C2496      C2497   1.408       .  A
C2497      H2506   1.084       .  S
C2498      C2499   1.405       .  A
C2498      H2507   1.084       .  S
C2499      C2500   1.408       .  A
C2500      H2508   1.085       .  S
C2509      C2510   1.400       .  A
C2509      C2514   1.404       .  A
C2509      H2525   1.084       .  S
C2510      C2511   1.405       .  A
C2510      H2526   1.084       .  S
C2511      C2521   1.405       .  A
C2511      C2512   1.411       .  A
C2512      C2518   1.412   1_556  A
C2512      C2513   1.417       .  A
C2513      C2515   1.412   1_556  A
C2513      C2514   1.411       .  A
C2514      C2522   1.405       .  A
C2515      C2524   1.411       .  A
C2515      C2516   1.405       .  A
C2516      C2517   1.403       .  A
C2516      H2527   1.083       .  S
C2517      C2518   1.405       .  A
C2517      H2528   1.083       .  S
C2518      C2519   1.411       .  A
C2519      C2520   1.409   1_554  A
C2519      H2529   1.084       .  S
C2520      C2521   1.411       .  A
C2521      H2530   1.085       .  S
C2522      C2523   1.410       .  A
C2522      H2531   1.084       .  S
C2523      C2524   1.408   1_556  A
C2524      H2532   1.082       .  S
