geometry optimzed in LAMMPS
_audit_creation_date              2020-12-01 
_audit_creation_method            'lammps2cif' 
_symmetry_space_group_name_H-M    'P1' 
_symmetry_Int_Tables_number       1 
_symmetry_cell_setting            triclinic 
loop_ 
_symmetry_equiv_pos_as_xyz 
  x,y,z 
_cell_length_a                    64.79957422 
_cell_length_b                    64.76291678330207 
_cell_length_c                    64.74269111978958 
_cell_angle_alpha                 90.04237788084347 
_cell_angle_beta                  90.00691678397894 
_cell_angle_gamma                 90.08906884286102 
loop_ 
_atom_site_label 
_atom_site_type_symbol 
_atom_site_fract_x 
_atom_site_fract_y 
_atom_site_fract_z 
_atom_site_charge 
O1          O  0.59736098  0.31541869  0.86776393    -0.73100
O2          O  0.65107258  0.28667895  0.87649777    -0.74100
O3          O  0.62129456  0.28727522  0.84453875    -0.62700
O4          O  0.62726818  0.31457565  0.90014775    -0.71100
O5          O  0.61124156  0.28801471  0.91462839    -0.70700
O6          O  0.60471056  0.26116064  0.85920997    -0.61900
O7          O  0.63498371  0.26006244  0.89082002    -0.74400
O8          O  0.58077622  0.28935240  0.88251240    -0.73200
Cu9        Cu  0.62477069  0.30192608  0.87176694     1.04600
Cu10       Cu  0.60730382  0.27377701  0.88734194     1.04300
C11         C  0.58050251  0.30684276  0.87333008     0.93100
C12         C  0.65164399  0.26884380  0.88487006     0.92200
C13         C  0.61209830  0.26984003  0.84311221     0.84400
C14         C  0.62069152  0.30527719  0.91628955     0.90600
O15         O  0.28963951  0.57470593  0.88536238    -0.73100
O16         O  0.26644571  0.63130381  0.89474931    -0.74100
O17         O  0.26340549  0.60158273  0.86279204    -0.62700
O18         O  0.29267777  0.60465246  0.91750118    -0.71100
O19         O  0.32008096  0.61818668  0.90209150    -0.70700
O20         O  0.29068040  0.61546230  0.84746241    -0.61900
O21         O  0.29377746  0.64508401  0.87941827    -0.74400
O22         O  0.31696652  0.58837471  0.86993193    -0.73200
Cu23       Cu  0.27713827  0.60254263  0.89066064     1.04600
Cu24       Cu  0.30636092  0.61721594  0.87422163     1.04300
C25         C  0.30686931  0.57253205  0.87600459     0.93100
C26         C  0.27628654  0.64715723  0.88831249     0.92200
C27         C  0.27229800  0.60831504  0.84649931     0.84400
C28         C  0.31092398  0.61213731  0.91850549     0.90600
O29         O  0.38978413  0.35603262  0.82851696    -0.73100
O30         O  0.33548566  0.36011686  0.79927641    -0.74100
O31         O  0.36613107  0.32932753  0.80307017    -0.62700
O32         O  0.35907158  0.38700105  0.82456503    -0.71100
O33         O  0.37454087  0.39937210  0.79663468    -0.70700
O34         O  0.38230281  0.34179137  0.77556665    -0.61900
O35         O  0.35120543  0.37222463  0.77137582    -0.74400
O36         O  0.40559214  0.36864464  0.80089021    -0.73200
Cu37       Cu  0.36207915  0.35772939  0.81484567     1.04600
Cu38       Cu  0.37897198  0.37097046  0.78517539     1.04300
C39         C  0.40634333  0.36142030  0.81925009     0.93100
C40         C  0.33471541  0.36661713  0.78066335     0.92200
C41         C  0.37534045  0.32646470  0.78584918     0.84400
C42         C  0.36552065  0.40233122  0.81392662     0.90600
O43         O  0.62167668  0.57509798  0.19004556    -0.73100
O44         O  0.61720371  0.63158596  0.21515984    -0.74100
O45         O  0.64756715  0.60054253  0.21442350    -0.62700
O46         O  0.59101125  0.60630442  0.19059733    -0.71100
O47         O  0.57761284  0.59204266  0.21868912    -0.70700
O48         O  0.63460016  0.58743739  0.24326769    -0.61900
O49         O  0.60297852  0.61806696  0.24326661    -0.74400
O50         O  0.60897087  0.56145980  0.21876006    -0.73200
Cu51       Cu  0.61979403  0.60383982  0.20157446     1.04600
Cu52       Cu  0.60555672  0.58925703  0.23199598     1.04300
C53         C  0.61619049  0.55929173  0.20051633     0.93100
C54         C  0.60943917  0.63374224  0.23317269     0.92200
C55         C  0.65014894  0.59328390  0.23257425     0.84400
C56         C  0.57531665  0.60007969  0.20079628     0.90600
O57         O  0.68506135  0.35294498  0.10056553    -0.73100
O58         O  0.70732738  0.35761145  0.15860963    -0.74100
O59         O  0.70685278  0.32622435  0.12791764    -0.62700
O60         O  0.68575209  0.38435141  0.13148058    -0.71100
O61         O  0.65601659  0.37269939  0.14378837    -0.70700
O62         O  0.67719561  0.31449552  0.14032588    -0.61900
O63         O  0.67756203  0.34599513  0.17086096    -0.74400
O64         O  0.65548292  0.34122030  0.11314482    -0.73200
Cu65       Cu  0.69727185  0.35569179  0.12917678     1.04600
Cu66       Cu  0.66553044  0.34321408  0.14241752     1.04300
C67         C  0.66670933  0.34620693  0.09769267     0.93100
C68         C  0.69592025  0.35255630  0.17392719     0.92200
C69         C  0.69548156  0.31115316  0.13371180     0.84400
C70         C  0.66762447  0.38775946  0.13845587     0.90600
O71         O  0.35879382  0.64721517  0.11218771    -0.73100
O72         O  0.36312963  0.67485982  0.16764455    -0.74100
O73         O  0.33291097  0.67341956  0.13589930    -0.62700
O74         O  0.38932838  0.64860434  0.14407443    -0.71100
O75         O  0.40328356  0.67620217  0.12939663    -0.70700
O76         O  0.34729768  0.70067469  0.12098751    -0.61900
O77         O  0.37718460  0.70231826  0.15280119    -0.74400
O78         O  0.37305067  0.67459208  0.09739181    -0.73200
Cu79       Cu  0.36058802  0.66002038  0.14045465     1.04600
Cu80       Cu  0.37573962  0.68933854  0.12462786     1.04300
C81         C  0.36478994  0.65670782  0.09594101     0.93100
C82         C  0.37065199  0.69307793  0.16897553     0.92200
C83         C  0.33122883  0.69103989  0.12715387     0.84400
C84         C  0.40528373  0.65869632  0.13825849     0.90600
O85         O  0.60331060  0.20801008  0.64979118    -0.73100
O86         O  0.61012133  0.18295724  0.59359409    -0.74100
O87         O  0.57746976  0.18449919  0.62301199    -0.62700
O88         O  0.63595977  0.20623697  0.62057365    -0.71100
O89         O  0.64673852  0.17722494  0.63511872    -0.70700
O90         O  0.58901776  0.15547833  0.63695393    -0.61900
O91         O  0.62153963  0.15404440  0.60787262    -0.74400
O92         O  0.61422107  0.17894369  0.66415457    -0.73200
Cu93       Cu  0.60627954  0.19643773  0.62122549     1.04600
Cu94       Cu  0.61823524  0.16543399  0.63650229     1.04300
C95         C  0.60787213  0.19754619  0.66587625     0.93100
C96         C  0.61706625  0.16458608  0.59180571     0.92200
C97         C  0.57406110  0.16646892  0.63036283     0.84400
C98         C  0.65061887  0.19506960  0.62766130     0.90600
O99         O  0.70064898  0.09186361  0.42419283    -0.73100
O100        O  0.72541372  0.08549832  0.36745311    -0.74100
O101        O  0.72542128  0.11697633  0.39800044    -0.62700
O102        O  0.70077551  0.06019525  0.39368244    -0.71100
O103        O  0.67245148  0.07359697  0.37996441    -0.70700
O104        O  0.69702417  0.13018698  0.38426184    -0.61900
O105        O  0.69696085  0.09876558  0.35389404    -0.74400
O106        O  0.67238984  0.10505413  0.41015233    -0.73200
Cu107      Cu  0.71405965  0.08813016  0.39633545     1.04600
Cu108      Cu  0.68374620  0.10232662  0.38159816     1.04300
C109        C  0.68259061  0.09959639  0.42610863     0.93100
C110        C  0.71507884  0.09134526  0.35167375     0.92200
C111        C  0.71512451  0.13258721  0.39174434     0.84400
C112        C  0.68267686  0.05792559  0.38615076     0.90600
O113        O  0.36677021  0.14111480  0.71238393    -0.73100
O114        O  0.36001986  0.08461348  0.68823713    -0.74100
O115        O  0.39090445  0.11572062  0.68662406    -0.62700
O116        O  0.33581666  0.11024199  0.71417884    -0.71100
O117        O  0.32040169  0.12316952  0.68650588    -0.70700
O118        O  0.37603562  0.12995696  0.65929997    -0.61900
O119        O  0.34535179  0.09814514  0.66044260    -0.74400
O120        O  0.35069993  0.15470874  0.68534627    -0.73200
Cu121      Cu  0.36390112  0.11242424  0.70126110     1.04600
Cu122      Cu  0.34762146  0.12693513  0.67187495     1.04300
C123        C  0.35959872  0.15678959  0.70283871     0.93100
C124        C  0.35151592  0.08237294  0.67056841     0.92200
C125        C  0.39231710  0.12411386  0.66882912     0.84400
C126        C  0.31938742  0.11590630  0.70484448     0.90600
O127        O  0.29778167  0.85919228  0.66352442    -0.73100
O128        O  0.32222935  0.85307737  0.60677323    -0.74100
O129        O  0.32152201  0.88476950  0.63703621    -0.62700
O130        O  0.29884479  0.82735519  0.63338705    -0.71100
O131        O  0.26988068  0.83944847  0.61980606    -0.70700
O132        O  0.29280641  0.89720394  0.62323673    -0.61900
O133        O  0.29329119  0.86526554  0.59320569    -0.74400
O134        O  0.26912572  0.87154240  0.64951645    -0.73200
Cu135      Cu  0.31111203  0.85568343  0.63564245     1.04600
Cu136      Cu  0.28029441  0.86879440  0.62093986     1.04300
C137        C  0.27948855  0.86633792  0.66544879     0.93100
C138        C  0.31151960  0.85815088  0.59098533     0.92200
C139        C  0.31077864  0.90010406  0.63089816     0.84400
C140        C  0.28076649  0.82424989  0.62614161     0.90600
O141        O  0.63910893  0.86148311  0.36176578    -0.73100
O142        O  0.63568654  0.80522933  0.33605442    -0.74100
O143        O  0.66575806  0.83712832  0.33722534    -0.62700
O144        O  0.60861756  0.82952170  0.36053472    -0.71100
O145        O  0.59565947  0.84365395  0.33219280    -0.70700
O146        O  0.65224742  0.85056090  0.30879592    -0.61900
O147        O  0.62187287  0.81894375  0.30788539    -0.74400
O148        O  0.62602808  0.87529070  0.33331185    -0.73200
Cu149      Cu  0.63772889  0.83288306  0.34992940     1.04600
Cu150      Cu  0.62347285  0.84760751  0.31960586     1.04300
C151        C  0.63358592  0.87734664  0.35143533     0.93100
C152        C  0.62815014  0.80317143  0.31792694     0.92200
C153        C  0.66800273  0.84501779  0.31926086     0.84400
C154        C  0.59304185  0.83512656  0.34977779     0.90600
O155        O  0.36640657  0.78206280  0.34922007    -0.73100
O156        O  0.36292687  0.80762341  0.40548157    -0.74100
O157        O  0.39383443  0.80489708  0.37458764    -0.62700
O158        O  0.33545559  0.78456127  0.38015325    -0.71100
O159        O  0.34697112  0.75543618  0.39389208    -0.70700
O160        O  0.40529074  0.77582495  0.38850102    -0.61900
O161        O  0.37437142  0.77851685  0.41934695    -0.74400
O162        O  0.37798196  0.75298876  0.36303806    -0.73200
Cu163      Cu  0.36425751  0.79580632  0.37689984     1.04600
Cu164      Cu  0.37654014  0.76469539  0.39170607     1.04300
C165        C  0.37279322  0.76351509  0.34717631     0.93100
C166        C  0.36811364  0.79711979  0.42134225     0.92200
C167        C  0.40881640  0.79353435  0.38054866     0.84400
C168        C  0.33197045  0.76666472  0.38774527     0.90600
O169        O  0.08362607  0.78147414  0.12180623    -0.73100
O170        O  0.13926007  0.75602612  0.11375104    -0.74100
O171        O  0.10887199  0.75398429  0.14475710    -0.62700
O172        O  0.11442343  0.78368160  0.09061942    -0.71100
O173        O  0.12868439  0.81032417  0.10674788    -0.70700
O174        O  0.12326240  0.78064626  0.16076244    -0.61900
O175        O  0.15380680  0.78260233  0.12974504    -0.74400
O176        O  0.09780592  0.80806839  0.13809772    -0.73200
Cu177      Cu  0.11100010  0.76793631  0.11713711     1.04600
Cu178      Cu  0.12636049  0.79639621  0.13434738     1.04300
C179        C  0.08179320  0.79856947  0.13148964     0.93100
C180        C  0.15531856  0.76503214  0.12083199     0.92200
C181        C  0.11557468  0.76247666  0.16128440     0.84400
C182        C  0.12265799  0.80162595  0.09007310     0.90600
O183        O  0.90831761  0.85953704  0.21597080    -0.73100
O184        O  0.85102394  0.86531130  0.23891617    -0.74100
O185        O  0.88179428  0.83451523  0.24035461    -0.62700
O186        O  0.87735127  0.89070507  0.21452092    -0.71100
O187        O  0.86445172  0.87668202  0.18606641    -0.70700
O188        O  0.86900287  0.82035441  0.21191533    -0.61900
O189        O  0.83833420  0.85122958  0.21038019    -0.74400
O190        O  0.89541720  0.84555207  0.18748918    -0.73200
Cu191      Cu  0.88010985  0.86306039  0.22838625     1.04600
Cu192      Cu  0.86640722  0.84801271  0.19794004     1.04300
C193        C  0.91095017  0.85139196  0.19817224     0.93100
C194        C  0.83563353  0.85876169  0.22841820     0.92200
C195        C  0.87579377  0.81855915  0.23037785     0.84400
C196        C  0.86994432  0.89265488  0.19631835     0.90600
O197        O  0.21471090  0.84104285  0.89027171    -0.73100
O198        O  0.18802629  0.89629576  0.88163147    -0.74100
O199        O  0.18684865  0.86572455  0.91329684    -0.62700
O200        O  0.21585628  0.87155521  0.85883445    -0.71100
O201        O  0.18941634  0.85627245  0.84333321    -0.70700
O202        O  0.16032621  0.85067126  0.89771312    -0.61900
O203        O  0.16164989  0.88101486  0.86601853    -0.74400
O204        O  0.18813435  0.82587449  0.87488836    -0.73200
Cu205      Cu  0.20225127  0.86920651  0.88659446     1.04600
Cu206      Cu  0.17395402  0.85294825  0.86997398     1.04300
C207        C  0.20565204  0.82469206  0.88387917     0.93100
C208        C  0.17078336  0.89742471  0.87210140     0.92200
C209        C  0.16914042  0.85703407  0.91419366     0.84400
C210        C  0.20717210  0.86485427  0.84241772     0.90600
O211        O  0.10930560  0.07750957  0.81065900    -0.73100
O212        O  0.09940944  0.13348592  0.78611442    -0.74100
O213        O  0.13068029  0.10322150  0.78199301    -0.62700
O214        O  0.07812235  0.10810017  0.81459744    -0.71100
O215        O  0.09532674  0.12253971  0.84045995    -0.70700
O216        O  0.14781718  0.11740461  0.80803601    -0.61900
O217        O  0.11701081  0.14773031  0.81185640    -0.74400
O218        O  0.12645603  0.09186063  0.83660574    -0.73200
Cu219      Cu  0.10375703  0.10501075  0.79748493     1.04600
Cu220      Cu  0.12222187  0.12032146  0.82517728     1.04300
C221        C  0.11951676  0.07579282  0.82746490     0.93100
C222        C  0.10696494  0.14943746  0.79496065     0.92200
C223        C  0.14755009  0.10996716  0.78974353     0.84400
C224        C  0.07832355  0.11645419  0.83249487     0.90600
O225        O  0.79630697  0.09939200  0.09947947    -0.73100
O226        O  0.76987457  0.09158887  0.15522108    -0.74100
O227        O  0.77103806  0.12404500  0.12568140    -0.62700
O228        O  0.79491062  0.06679865  0.12884600    -0.71100
O229        O  0.82289933  0.07933583  0.14405857    -0.70700
O230        O  0.79925962  0.13657694  0.14046103    -0.61900
O231        O  0.79801236  0.10436561  0.16996382    -0.74400
O232        O  0.82437028  0.11170907  0.11475668    -0.73200
Cu233      Cu  0.78205130  0.09498867  0.12675973     1.04600
Cu234      Cu  0.81209361  0.10840316  0.14281305     1.04300
C235        C  0.81454715  0.10689405  0.09835405     0.93100
C236        C  0.77980312  0.09694855  0.17144922     0.92200
C237        C  0.78136611  0.13939302  0.13261821     0.84400
C238        C  0.81265294  0.06398195  0.13700392     0.90600
O239        O  0.88737852  0.15704653  0.87750811    -0.73100
O240        O  0.83163799  0.18271002  0.88263120    -0.74100
O241        O  0.86340748  0.18385813  0.85283567    -0.62700
O242        O  0.85559836  0.15592705  0.90710938    -0.71100
O243        O  0.86913356  0.18297999  0.92320205    -0.70700
O244        O  0.87786573  0.21085638  0.86819951    -0.61900
O245        O  0.84544121  0.21003861  0.89800816    -0.74400
O246        O  0.90152867  0.18385344  0.89348034    -0.73200
Cu247      Cu  0.85905090  0.16899609  0.87948599     1.04600
Cu248      Cu  0.87399557  0.19791400  0.89630729     1.04300
C249        C  0.90328185  0.16625991  0.88468204     0.93100
C250        C  0.82963256  0.20040605  0.89110336     0.92200
C251        C  0.87186374  0.20165181  0.85176989     0.84400
C252        C  0.86101868  0.16496460  0.92377500     0.90600
O253        O  0.18554000  0.57837261  0.62855405    -0.73100
O254        O  0.20809893  0.63612692  0.62245694    -0.74100
O255        O  0.20910052  0.60537451  0.65368627    -0.62700
O256        O  0.18484211  0.60908587  0.59693895    -0.71100
O257        O  0.15585516  0.62186740  0.60979584    -0.70700
O258        O  0.18021645  0.61775142  0.66716607    -0.61900
O259        O  0.17915437  0.64849830  0.63581766    -0.74400
O260        O  0.15657191  0.59117565  0.64145216    -0.73200
Cu261      Cu  0.19785893  0.60678131  0.62492192     1.04600
Cu262      Cu  0.16692236  0.62024455  0.63899130     1.04300
C263        C  0.16755050  0.57565431  0.63624843     0.93100
C264        C  0.19716091  0.65147346  0.62834474     0.92200
C265        C  0.19860848  0.61092623  0.66943460     0.84400
C266        C  0.16670991  0.61631430  0.59423708     0.90600
O267        O  0.09841849  0.34554640  0.66778404    -0.73100
O268        O  0.15571253  0.35333913  0.69091432    -0.74100
O269        O  0.12590928  0.32135284  0.69176569    -0.62700
O270        O  0.12891003  0.37788740  0.66672008    -0.71100
O271        O  0.11591067  0.39140898  0.69535713    -0.70700
O272        O  0.11175497  0.33460661  0.72002107    -0.61900
O273        O  0.14206035  0.36639153  0.71947699    -0.74400
O274        O  0.08539786  0.35967511  0.69612149    -0.73200
Cu275      Cu  0.12764185  0.34909701  0.67823678     1.04600
Cu276      Cu  0.11328548  0.36349735  0.70868773     1.04300
C277        C  0.08280802  0.35105529  0.67856621     0.93100
C278        C  0.15786677  0.36108400  0.70896526     0.92200
C279        C  0.11837713  0.31904078  0.70984422     0.84400
C280        C  0.12357388  0.39367718  0.67730061     0.90600
O281        O  0.13187384  0.64103106  0.39474511    -0.73100
O282        O  0.12649435  0.66554031  0.33762159    -0.74100
O283        O  0.15752119  0.66519010  0.36877019    -0.62700
O284        O  0.10072518  0.64098981  0.36328185    -0.71100
O285        O  0.08717940  0.66927411  0.37694042    -0.70700
O286        O  0.14428466  0.69368238  0.38230892    -0.61900
O287        O  0.11295708  0.69372294  0.35152467    -0.74400
O288        O  0.11850001  0.66959635  0.40799125    -0.73200
Cu289      Cu  0.12957828  0.65216450  0.36564395     1.04600
Cu290      Cu  0.11523903  0.68251771  0.38015810     1.04300
C291        C  0.12644970  0.65173818  0.41045921     0.93100
C292        C  0.11883983  0.68363283  0.33563667     0.92200
C293        C  0.15997075  0.68317169  0.37653812     0.84400
C294        C  0.08491954  0.65135893  0.36888619     0.90600
O295        O  0.86957995  0.27448430  0.59856886    -0.73100
O296        O  0.87566895  0.25193224  0.65566882    -0.74100
O297        O  0.84289469  0.25418347  0.62649416    -0.62700
O298        O  0.90234319  0.27255897  0.62774287    -0.71100
O299        O  0.89254683  0.30283998  0.64030838    -0.70700
O300        O  0.83337570  0.28432423  0.63959547    -0.61900
O301        O  0.86641152  0.28217914  0.66874209    -0.74400
O302        O  0.85968807  0.30471325  0.61120924    -0.73200
Cu303      Cu  0.87296099  0.26225351  0.62668176     1.04600
Cu304      Cu  0.86268233  0.29456412  0.64043522     1.04300
C305        C  0.86344091  0.29299874  0.59575453     0.93100
C306        C  0.87217417  0.26346750  0.67128418     0.92200
C307        C  0.82869464  0.26644391  0.63263590     0.84400
C308        C  0.90683836  0.29065681  0.63429562     0.90600
O309        O  0.85476781  0.58410824  0.34961390    -0.73100
O310        O  0.86007735  0.64019282  0.32331719    -0.74100
O311        O  0.82804979  0.61010529  0.32687663    -0.62700
O312        O  0.88690294  0.61404050  0.34617575    -0.71100
O313        O  0.89755546  0.59961786  0.31701469    -0.70700
O314        O  0.83869884  0.59508148  0.29801691    -0.61900
O315        O  0.87042988  0.62527894  0.29430077    -0.74400
O316        O  0.86568606  0.56945835  0.32066390    -0.73200
Cu317      Cu  0.85711406  0.61263311  0.33752129     1.04600
Cu318      Cu  0.86847291  0.59687184  0.30650471     1.04300
C319        C  0.85909301  0.56789497  0.33920201     0.93100
C320        C  0.86610225  0.64158127  0.30455704     0.92200
C321        C  0.82404079  0.60161154  0.30950010     0.84400
C322        C  0.90156640  0.60767366  0.33459597     0.90600
O323        O  0.82021920  0.37262071  0.37609679    -0.73100
O324        O  0.79583935  0.31611142  0.38158613    -0.74100
O325        O  0.79679062  0.34635946  0.35001232    -0.62700
O326        O  0.81908322  0.34242218  0.40769163    -0.71100
O327        O  0.79012136  0.35607422  0.41972467    -0.70700
O328        O  0.76791895  0.36020953  0.36201702    -0.61900
O329        O  0.76682888  0.32969341  0.39356679    -0.74400
O330        O  0.79147508  0.38661808  0.38823434    -0.73200
Cu331      Cu  0.80897463  0.34393578  0.37843328     1.04600
Cu332      Cu  0.77807209  0.35864691  0.39131713     1.04300
C333        C  0.80983976  0.38856805  0.38124322     0.93100
C334        C  0.77748406  0.31388640  0.38843008     0.92200
C335        C  0.77880996  0.35382032  0.34684929     0.84400
C336        C  0.80804632  0.34850134  0.42287642     0.90600
C337        C  0.85579647  0.54719353  0.34837958    -0.03400
C338        C  0.84683214  0.54512307  0.36803266    -0.06000
C339        C  0.84200715  0.52560057  0.37589604    -0.21100
C340        C  0.84611958  0.50768821  0.36439848     0.24700
C341        C  0.85554548  0.50974879  0.34489032    -0.18600
C342        C  0.86037723  0.52926889  0.33703896    -0.08600
C343        C  0.83878645  0.48745048  0.37250751    -0.18900
C344        C  0.84543218  0.46908367  0.36536864    -0.23700
C345        C  0.83647734  0.44880511  0.37147756     0.26700
C346        C  0.84734523  0.43083881  0.36622337    -0.20400
C347        C  0.83886631  0.41135191  0.36983749    -0.10100
C348        C  0.81918169  0.40931167  0.37871415    -0.10600
C349        C  0.80840842  0.42724272  0.38442968    -0.03600
C350        C  0.81691524  0.44680111  0.38081045    -0.18700
H351        H  0.84303163  0.55861958  0.37714555     0.10400
H352        H  0.83463914  0.52451589  0.39087789     0.10500
H353        H  0.85849949  0.49650189  0.33517738     0.10200
H354        H  0.86717260  0.53032371  0.32179427     0.11300
H355        H  0.82741646  0.48789293  0.38478861     0.11400
H356        H  0.85807966  0.46867147  0.35440514     0.13300
H357        H  0.86235850  0.43187132  0.35892381     0.09800
H358        H  0.84761326  0.39787014  0.36526012     0.11900
H359        H  0.79320078  0.42618636  0.39128590     0.08500
H360        H  0.80773382  0.46016406  0.38469742     0.11200
C361        C  0.81586502  0.34641171  0.44423906    -0.03400
C362        C  0.80344982  0.35209832  0.46109890    -0.06000
C363        C  0.81032335  0.34903789  0.48130511    -0.21100
C364        C  0.82962897  0.34006756  0.48511019     0.24700
C365        C  0.84241612  0.33508543  0.46826342    -0.18600
C366        C  0.83555455  0.33816982  0.44803485    -0.08600
C367        C  0.83568274  0.33583872  0.50679472    -0.18900
C368        C  0.84839421  0.32028420  0.51203546    -0.23700
C369        C  0.85272942  0.31419483  0.53370643     0.26700
C370        C  0.85966722  0.29405033  0.53746813    -0.20400
C371        C  0.86337222  0.28730225  0.55758011    -0.10100
C372        C  0.86033020  0.30061662  0.57444866    -0.10600
C373        C  0.85382827  0.32096291  0.57071431    -0.03600
C374        C  0.85014054  0.32774005  0.55053639    -0.18700
H375        H  0.78825211  0.35859861  0.45870654     0.10400
H376        H  0.80027512  0.35318688  0.49402068     0.10500
H377        H  0.85770535  0.32882482  0.47060701     0.10200
H378        H  0.84559736  0.33388361  0.43537285     0.11300
H379        H  0.82785955  0.34455968  0.51876684     0.11400
H380        H  0.85460061  0.31040778  0.49999155     0.13300
H381        H  0.86191090  0.28334351  0.52479878     0.09800
H382        H  0.86840073  0.27153522  0.55990206     0.11900
H383        H  0.85150812  0.33163649  0.58338500     0.08500
H384        H  0.84543854  0.34358556  0.54826533     0.11200
C385        C  0.06392768  0.64278035  0.36541202    -0.03400
C386        C  0.06131067  0.62391036  0.35494233    -0.06000
C387        C  0.04154753  0.61649186  0.35032782    -0.21100
C388        C  0.02392016  0.62756035  0.35626046     0.24700
C389        C  0.02650960  0.64636055  0.36692886    -0.18600
C390        C  0.04628546  0.65383082  0.37147546    -0.08600
C391        C  0.00321627  0.61969364  0.35000822    -0.18900
C392        C  0.98567913  0.62462813  0.36005648    -0.23700
C393        C  0.96456510  0.61821568  0.35345723     0.26700
C394        C  0.94816843  0.62122743  0.36730795    -0.20400
C395        C  0.92780322  0.61726908  0.36138548    -0.10100
C396        C  0.92329207  0.61017025  0.34138233    -0.10600
C397        C  0.93969886  0.60653486  0.32764627    -0.03600
C398        C  0.96010817  0.61059690  0.33354401    -0.18700
H399        H  0.07453632  0.61504991  0.34993367     0.10400
H400        H  0.04002859  0.60206876  0.34194071     0.10500
H401        H  0.01338801  0.65571232  0.37121089     0.10200
H402        H  0.04774446  0.66851065  0.37938640     0.11300
H403        H  0.00267655  0.60913379  0.33701432     0.11400
H404        H  0.98672362  0.63376741  0.37407760     0.13300
H405        H  0.95108099  0.62708846  0.38272373     0.09800
H406        H  0.91555774  0.62014949  0.37238016     0.11900
H407        H  0.93672891  0.60115170  0.31207772     0.08500
H408        H  0.97210723  0.60839721  0.32217885     0.11200
C409        C  0.92867488  0.29751506  0.63529537    -0.03400
C410        C  0.94484773  0.28384801  0.63061761    -0.06000
C411        C  0.96543368  0.29011461  0.63267810    -0.21100
C412        C  0.97034097  0.31009881  0.63956127     0.24700
C413        C  0.95413130  0.32402919  0.64345951    -0.18600
C414        C  0.93357508  0.31775218  0.64146395    -0.08600
C415        C  0.99244687  0.31577573  0.64252963    -0.18900
C416        C  0.99867033  0.33090437  0.65546074    -0.23700
C417        C  0.02060073  0.33628563  0.66001947     0.26700
C418        C  0.02447100  0.35043343  0.67600932    -0.20400
C419        C  0.04462769  0.35560604  0.68160710    -0.10100
C420        C  0.06153743  0.34685390  0.67125963    -0.10600
C421        C  0.05779512  0.33311230  0.65486978    -0.03600
C422        C  0.03755501  0.32786063  0.64927833    -0.18700
H423        H  0.94161679  0.26819332  0.62569489     0.10400
H424        H  0.97758558  0.27914086  0.62930649     0.10500
H425        H  0.95715115  0.33982540  0.64794692     0.10200
H426        H  0.92149400  0.32877861  0.64488168     0.11300
H427        H  0.00376742  0.30623434  0.63476024     0.11400
H428        H  0.98709405  0.33931242  0.66415607     0.13300
H429        H  0.01180972  0.35731761  0.68448946     0.09800
H430        H  0.04695149  0.36629739  0.69427203     0.11900
H431        H  0.07051876  0.32605725  0.64664931     0.08500
H432        H  0.03546394  0.31718212  0.63662735     0.11200
C433        C  0.12996449  0.64390909  0.43170381    -0.03400
C434        C  0.13886049  0.62443281  0.43512354    -0.06000
C435        C  0.14344128  0.61784904  0.45521344    -0.21100
C436        C  0.13910803  0.63048299  0.47232350     0.24700
C437        C  0.13010237  0.64993503  0.46887824    -0.18600
C438        C  0.12552306  0.65649990  0.44884077    -0.08600
C439        C  0.14545002  0.62353702  0.49331803    -0.18900
C440        C  0.13708014  0.63093627  0.51092130    -0.23700
C441        C  0.14450832  0.62552492  0.53202613     0.26700
C442        C  0.13170553  0.62964705  0.54905753    -0.20400
C443        C  0.13864565  0.62624017  0.56926173    -0.10100
C444        C  0.15864105  0.61869915  0.57289757    -0.10600
C445        C  0.17136036  0.61431915  0.55584803    -0.03600
C446        C  0.16445145  0.61776211  0.53568212    -0.18700
H447        H  0.14261084  0.61441701  0.42226603     0.10400
H448        H  0.15057867  0.60289230  0.45738783     0.10500
H449        H  0.12716918  0.66047751  0.48149494     0.10200
H450        H  0.11893652  0.67171686  0.44676887     0.11300
H451        H  0.15722338  0.61168089  0.49412234     0.11400
H452        H  0.12399856  0.64133042  0.50998855     0.13300
H453        H  0.11633862  0.63579046  0.54673304     0.09800
H454        H  0.12846724  0.62982810  0.58202797     0.11900
H455        H  0.18692671  0.60867981  0.55807439     0.08500
H456        H  0.17509586  0.61495363  0.52314343     0.11200
C457        C  0.12720091  0.41470653  0.66900168    -0.03400
C458        C  0.13869613  0.41751347  0.65080891    -0.06000
C459        C  0.14395590  0.43734508  0.64408039    -0.21100
C460        C  0.13772523  0.45486482  0.65522482     0.24700
C461        C  0.12588747  0.45207258  0.67326743    -0.18600
C462        C  0.12066810  0.43222031  0.68002254    -0.08600
C463        C  0.14504612  0.47553120  0.64823031    -0.18900
C464        C  0.13661195  0.49354202  0.65436303    -0.23700
C465        C  0.14472231  0.51423290  0.64837230     0.26700
C466        C  0.13198907  0.53153425  0.65112968    -0.20400
C467        C  0.13925422  0.55140422  0.64681181    -0.10100
C468        C  0.15950863  0.55447793  0.63965752    -0.10600
C469        C  0.17224971  0.53718641  0.63673519    -0.03600
C470        C  0.16500849  0.51729883  0.64113542    -0.18700
H471        H  0.14415410  0.40435974  0.64204846     0.10400
H472        H  0.15321766  0.43898724  0.63024682     0.10500
H473        H  0.12121533  0.46502215  0.68269351     0.10200
H474        H  0.11195507  0.43058784  0.69420254     0.11300
H475        H  0.15769698  0.47571299  0.63727132     0.11400
H476        H  0.12285107  0.49331930  0.66388811     0.13300
H477        H  0.11637770  0.52969455  0.65683318     0.09800
H478        H  0.12904150  0.56439014  0.64931226     0.11900
H479        H  0.18801145  0.53904709  0.63149582     0.08500
H480        H  0.17561628  0.50455655  0.63939134     0.11200
C481        C  0.87454375  0.21141447  0.83128764    -0.03400
C482        C  0.88736633  0.22873005  0.82857661    -0.06000
C483        C  0.88986954  0.23750758  0.80895081    -0.21100
C484        C  0.87967650  0.22911266  0.79172201     0.24700
C485        C  0.86654485  0.21204310  0.79459687    -0.18600
C486        C  0.86414416  0.20324780  0.81408858    -0.08600
C487        C  0.88199655  0.23906995  0.77117260    -0.18900
C488        C  0.87898061  0.22874001  0.75333805    -0.23700
C489        C  0.87875355  0.23848436  0.73257001     0.26700
C490        C  0.88016091  0.22565647  0.71514691    -0.20400
C491        C  0.87831375  0.23380994  0.69527317    -0.10100
C492        C  0.87479993  0.25501304  0.69235830    -0.10600
C493        C  0.87360982  0.26793682  0.70975654    -0.03600
C494        C  0.87554468  0.25978394  0.72966614    -0.18700
H495        H  0.89554787  0.23538841  0.84156225     0.10400
H496        H  0.89984814  0.25082965  0.80719681     0.10500
H497        H  0.85769044  0.20565718  0.78195227     0.10200
H498        H  0.85387530  0.19013404  0.81571120     0.11300
H499        H  0.88649098  0.25520856  0.77087380     0.11400
H500        H  0.87651072  0.21216353  0.75384013     0.13300
H501        H  0.88243902  0.20918121  0.71692035     0.09800
H502        H  0.87928776  0.22341426  0.68219909     0.11900
H503        H  0.87093074  0.28434268  0.70800686     0.08500
H504        H  0.87383384  0.27015722  0.74263789     0.11200
C505        C  0.85762604  0.15442825  0.94373252    -0.03400
C506        C  0.85055381  0.13390252  0.94412306    -0.06000
C507        C  0.84640430  0.12410448  0.96285097    -0.21100
C508        C  0.84931635  0.13451772  0.98160918     0.24700
C509        C  0.85658535  0.15503261  0.98126917    -0.18600
C510        C  0.86079170  0.16483413  0.96250138    -0.08600
C511        C  0.84297414  0.12408089  0.00098689    -0.18900
C512        C  0.84978294  0.12975660  0.01977747    -0.23700
C513        C  0.84134269  0.12140484  0.03939300     0.26700
C514        C  0.85239717  0.12489784  0.05768860    -0.20400
C515        C  0.84398760  0.11952052  0.07679021    -0.10100
C516        C  0.82423139  0.11061364  0.07802042    -0.10600
C517        C  0.81342967  0.10643250  0.05969161    -0.03600
C518        C  0.82182927  0.11183794  0.04057083    -0.18700
H519        H  0.84797633  0.12543530  0.92992230     0.10400
H520        H  0.84065089  0.10838800  0.96267129     0.10500
H521        H  0.85837875  0.16385834  0.99533815     0.10200
H522        H  0.86604722  0.18071527  0.96268312     0.11300
H523        H  0.83229462  0.11124988  0.99953283     0.11400
H524        H  0.86193508  0.14124389  0.02100624     0.13300
H525        H  0.86739303  0.13230829  0.05724992     0.09800
H526        H  0.85275258  0.12289435  0.09063400     0.11900
H527        H  0.79816651  0.09961356  0.06014034     0.08500
H528        H  0.81250096  0.10929936  0.02696708     0.11200
C529        C  0.10467680  0.16991753  0.78528044    -0.03400
C530        C  0.08901970  0.17363694  0.77073864    -0.06000
C531        C  0.08762809  0.19280715  0.76089508    -0.21100
C532        C  0.10219955  0.20830638  0.76500614     0.24700
C533        C  0.11765125  0.20469623  0.77978460    -0.18600
C534        C  0.11878585  0.18573041  0.78992629    -0.08600
C535        C  0.10085400  0.22830523  0.75407591    -0.18900
C536        C  0.11782385  0.23857560  0.74794586    -0.23700
C537        C  0.11692940  0.25886685  0.73753322     0.26700
C538        C  0.13189424  0.26377159  0.72268212    -0.20400
C539        C  0.13202579  0.28318903  0.71329897    -0.10100
C540        C  0.11756505  0.29825074  0.71908742    -0.10600
C541        C  0.10264874  0.29339680  0.73405275    -0.03600
C542        C  0.10221134  0.27379746  0.74307856    -0.18700
H543        H  0.07787471  0.16172805  0.76697657     0.10400
H544        H  0.07547117  0.19538548  0.74971757     0.10500
H545        H  0.12877625  0.21659406  0.78362420     0.10200
H546        H  0.13100527  0.18328246  0.80106392     0.11300
H547        H  0.08566625  0.23418941  0.75015971     0.11400
H548        H  0.13289774  0.23152932  0.74993804     0.13300
H549        H  0.14347935  0.25254533  0.71833771     0.09800
H550        H  0.14377711  0.28661065  0.70189352     0.11900
H551        H  0.09133617  0.30475164  0.73875485     0.08500
H552        H  0.09076461  0.27055984  0.75482977     0.11200
C553        C  0.92378901  0.15654375  0.88235691    -0.03400
C554        C  0.92542538  0.13651906  0.87418861    -0.06000
C555        C  0.94472920  0.12782578  0.87037007    -0.21100
C556        C  0.96288263  0.13887334  0.87460865     0.24700
C557        C  0.96128212  0.15872139  0.88341561    -0.18600
C558        C  0.94190703  0.16739830  0.88733423    -0.08600
C559        C  0.98281016  0.12981273  0.86775646    -0.18900
C560        C  0.00153764  0.13727268  0.87286550    -0.23700
C561        C  0.02094086  0.12983877  0.86314409     0.26700
C562        C  0.03980514  0.13347874  0.87316792    -0.20400
C563        C  0.05848429  0.12846963  0.86356555    -0.10100
C564        C  0.05866159  0.11981173  0.84364385    -0.10600
C565        C  0.03977104  0.11573605  0.83380991    -0.03600
C566        C  0.02114170  0.12079789  0.84335589    -0.18700
H567        H  0.91176567  0.12767931  0.87030311     0.10400
H568        H  0.94545703  0.11256086  0.86354698     0.10500
H569        H  0.97477612  0.16800711  0.88659291     0.10200
H570        H  0.94113119  0.18287768  0.89362677     0.11300
H571        H  0.98185207  0.11648384  0.85763182     0.11400
H572        H  0.00291662  0.14935595  0.88438174     0.13300
H573        H  0.04010365  0.14058078  0.88832229     0.09800
H574        H  0.07278659  0.13184090  0.87154417     0.11900
H575        H  0.03936250  0.10929267  0.81837446     0.08500
H576        H  0.00705877  0.11838294  0.83472561     0.11200
C577        C  0.16161506  0.91782589  0.86752965    -0.03400
C578        C  0.14307846  0.91924131  0.85634759    -0.06000
C579        C  0.13510013  0.93848368  0.85082943    -0.21100
C580        C  0.14531243  0.95672299  0.85653921     0.24700
C581        C  0.16381367  0.95534444  0.86784384    -0.18600
C582        C  0.17183253  0.93608889  0.87331744    -0.08600
C583        C  0.13694132  0.97675550  0.84926844    -0.18900
C584        C  0.14053789  0.99482282  0.85897093    -0.23700
C585        C  0.13367155  0.01532579  0.85116923     0.26700
C586        C  0.14159971  0.03311479  0.86074222    -0.20400
C587        C  0.13667715  0.05276108  0.85334813    -0.10100
C588        C  0.12366270  0.05508177  0.83615804    -0.10600
C589        C  0.11515883  0.03736415  0.82696021    -0.03600
C590        C  0.12000670  0.01771109  0.83439678    -0.18700
H591        H  0.13489092  0.90546778  0.85152952     0.10400
H592        H  0.12094713  0.93912636  0.84194161     0.10500
H593        H  0.17252970  0.96900881  0.87191338     0.10200
H594        H  0.18627719  0.93551492  0.88171020     0.11300
H595        H  0.12758412  0.97625175  0.83543132     0.11400
H596        H  0.14945208  0.99476928  0.87316448     0.13300
H597        H  0.15201403  0.03181671  0.87377019     0.09800
H598        H  0.14341114  0.06610907  0.86086147     0.11900
H599        H  0.10487358  0.03865243  0.81383743     0.08500
H600        H  0.11298704  0.00464429  0.82678500     0.11200
C601        C  0.87624772  0.79801379  0.24048045    -0.03400
C602        C  0.88365668  0.79590436  0.26077503    -0.06000
C603        C  0.88308604  0.77676511  0.27074000    -0.21100
C604        C  0.87521252  0.75923595  0.26068228     0.24700
C605        C  0.86782390  0.76132521  0.24031445    -0.18600
C606        C  0.86843075  0.78047717  0.23033004    -0.08600
C607        C  0.87420409  0.73939193  0.27228942    -0.18900
C608        C  0.87232649  0.72077464  0.26316847    -0.23700
C609        C  0.87123345  0.70090322  0.27466399     0.26700
C610        C  0.87603479  0.68263683  0.26406393    -0.20400
C611        C  0.87456810  0.66348589  0.27385232    -0.10100
C612        C  0.86806241  0.66207419  0.29450854    -0.10600
C613        C  0.86325436  0.68034746  0.30521765    -0.03600
C614        C  0.86476489  0.69957315  0.29540311    -0.18700
H615        H  0.88969014  0.80910950  0.26909318     0.10400
H616        H  0.88874734  0.77567693  0.28644848     0.10500
H617        H  0.86103575  0.74843614  0.23214960     0.10200
H618        H  0.86239027  0.78161417  0.21477415     0.11300
H619        H  0.87588286  0.74022827  0.28894604     0.11400
H620        H  0.87248195  0.71976412  0.24644677     0.13300
H621        H  0.88093873  0.68317089  0.24807352     0.09800
H622        H  0.87839858  0.64974519  0.26512871     0.11900
H623        H  0.85809482  0.67978551  0.32111753     0.08500
H624        H  0.86037109  0.71320665  0.30398116     0.11200
C625        C  0.86719266  0.91355044  0.18734613    -0.03400
C626        C  0.87378501  0.93113290  0.19821842    -0.06000
C627        C  0.86982199  0.95090015  0.19056743    -0.21100
C628        C  0.85912534  0.95368317  0.17189449     0.24700
C629        C  0.85312407  0.93603571  0.16062113    -0.18600
C630        C  0.85711227  0.91622051  0.16830088    -0.08600
C631        C  0.85421954  0.97524282  0.16542194    -0.18900
C632        C  0.84230476  0.98046913  0.14913369    -0.23700
C633        C  0.83601980  0.00216363  0.14474143     0.26700
C634        C  0.81781779  0.00569181  0.13351381    -0.20400
C635        C  0.81043262  0.02577471  0.13057135    -0.10100
C636        C  0.82121319  0.04281639  0.13865993    -0.10600
C637        C  0.84000333  0.03936794  0.14892025    -0.03600
C638        C  0.84738644  0.01930847  0.15184880    -0.18700
H639        H  0.88170756  0.92965906  0.21287291     0.10400
H640        H  0.87480448  0.96411682  0.19954837     0.10500
H641        H  0.84517383  0.93723262  0.14601770     0.10200
H642        H  0.85192156  0.90298150  0.15948533     0.11300
H643        H  0.85980414  0.98737253  0.17553134     0.11400
H644        H  0.83553124  0.96857377  0.13952362     0.13300
H645        H  0.80892515  0.99282710  0.12754955     0.09800
H646        H  0.79605418  0.02790493  0.12232029     0.11900
H647        H  0.84888439  0.05216937  0.15502090     0.08500
H648        H  0.86196101  0.01740246  0.15974196     0.11200
C649        C  0.11501642  0.75103813  0.18103576    -0.03400
C650        C  0.10969282  0.72999754  0.18146059    -0.06000
C651        C  0.11034532  0.71892206  0.19997244    -0.21100
C652        C  0.11602910  0.72869276  0.21846199     0.24700
C653        C  0.12141665  0.74975020  0.21803313    -0.18600
C654        C  0.12086162  0.76079276  0.19952716    -0.08600
C655        C  0.11678917  0.71638350  0.23777940    -0.18900
C656        C  0.11396031  0.72487147  0.25654080    -0.23700
C657        C  0.11459879  0.71310991  0.27620326     0.26700
C658        C  0.10539393  0.72194193  0.29368835    -0.20400
C659        C  0.10646378  0.71213696  0.31282612    -0.10100
C660        C  0.11689433  0.69325411  0.31498997    -0.10600
C661        C  0.12591438  0.68419606  0.29745174    -0.03600
C662        C  0.12487235  0.69406282  0.27823655    -0.18700
H663        H  0.10533897  0.72198579  0.16742967     0.10400
H664        H  0.10633119  0.70268071  0.19986817     0.10500
H665        H  0.12655428  0.75766467  0.23183241     0.10200
H666        H  0.12527616  0.77692713  0.19967656     0.11300
H667        H  0.11866377  0.69980850  0.23631048     0.11400
H668        H  0.11012583  0.74114499  0.25762147     0.13300
H669        H  0.09744778  0.73660536  0.29257959     0.09800
H670        H  0.09927321  0.71951174  0.32599981     0.11900
H671        H  0.13417740  0.66972885  0.29866402     0.08500
H672        H  0.13262963  0.68699125  0.26525264     0.11200
C673        C  0.12567285  0.81217951  0.07000143    -0.03400
C674        C  0.13486362  0.83182478  0.06914203    -0.06000
C675        C  0.13890992  0.84120619  0.05013361    -0.21100
C676        C  0.13382681  0.83125520  0.03153906     0.24700
C677        C  0.12434523  0.81168298  0.03240667    -0.18600
C678        C  0.12025043  0.80232543  0.05142990    -0.08600
C679        C  0.14023993  0.84107103  0.01177032    -0.18900
C680        C  0.13331135  0.83522000  0.99302144    -0.23700
C681        C  0.14193224  0.84314145  0.97323783     0.26700
C682        C  0.13078080  0.83985614  0.95492635    -0.20400
C683        C  0.13927198  0.84504728  0.93575696    -0.10100
C684        C  0.15917445  0.85360882  0.93448607    -0.10600
C685        C  0.17008872  0.85750497  0.95282404    -0.03600
C686        C  0.16165940  0.85222367  0.97196358    -0.18700
H687        H  0.13928858  0.83982619  0.08315548     0.10400
H688        H  0.14638059  0.85618353  0.04995952     0.10500
H689        H  0.12067615  0.80312382  0.01855203     0.10200
H690        H  0.11328785  0.78711449  0.05155333     0.11300
H691        H  0.15129427  0.85360816  0.01289448     0.11400
H692        H  0.12091844  0.82400858  0.99189359     0.13300
H693        H  0.11562221  0.83279167  0.95541188     0.09800
H694        H  0.13044613  0.84186676  0.92190650     0.11900
H695        H  0.18552202  0.86392681  0.95237079     0.08500
H696        H  0.17112083  0.85450548  0.98552060     0.11200
C697        C  0.06094201  0.80698771  0.13549223    -0.03400
C698        C  0.04355889  0.79797345  0.12613155    -0.06000
C699        C  0.02372803  0.80488979  0.13091453    -0.21100
C700        C  0.02075887  0.82078101  0.14534294     0.24700
C701        C  0.03818558  0.83030220  0.15423323    -0.18600
C702        C  0.05806849  0.82344077  0.14935832    -0.08600
C703        C  0.99926987  0.82682386  0.15062061    -0.18900
C704        C  0.99399523  0.83569069  0.16871881    -0.23700
C705        C  0.97240914  0.84036973  0.17521236     0.26700
C706        C  0.96928899  0.84893508  0.19491296    -0.20400
C707        C  0.94939526  0.85287872  0.20224337    -0.10100
C708        C  0.93207300  0.84829827  0.19003184    -0.10600
C709        C  0.93511192  0.84006598  0.17018872    -0.03600
C710        C  0.95500270  0.83618148  0.16281121    -0.18700
H711        H  0.04524370  0.78536648  0.11526404     0.10400
H712        H  0.01061210  0.79744680  0.12365975     0.10500
H713        H  0.03661491  0.84308662  0.16486938     0.10200
H714        H  0.07116501  0.83078725  0.15672722     0.11300
H715        H  0.98749268  0.82252337  0.13958123     0.11400
H716        H  0.00600717  0.83894169  0.17993239     0.13300
H717        H  0.98231615  0.85238277  0.20482865     0.09800
H718        H  0.94759648  0.85922408  0.21761563     0.11900
H719        H  0.92207428  0.83641636  0.16036577     0.08500
H720        H  0.95636159  0.82974536  0.14750506     0.11200
C721        C  0.18111488  0.69165178  0.37908140    -0.03400
C722        C  0.19835755  0.68033654  0.37235296    -0.06000
C723        C  0.21832588  0.68809135  0.37505961    -0.21100
C724        C  0.22158880  0.70739095  0.38439220     0.24700
C725        C  0.20435492  0.71861358  0.39141523    -0.18600
C726        C  0.18435567  0.71085123  0.38870106    -0.08600
C727        C  0.24315634  0.71504829  0.38669651    -0.18900
C728        C  0.24811548  0.73516870  0.38879694    -0.23700
C729        C  0.26974102  0.74294169  0.38945499     0.26700
C730        C  0.27364044  0.76342654  0.38353582    -0.20400
C731        C  0.29377711  0.77121928  0.38321952    -0.10100
C732        C  0.31051148  0.75873919  0.38905866    -0.10600
C733        C  0.30656522  0.73841959  0.39563732    -0.03600
C734        C  0.28641579  0.73059528  0.39587118    -0.18700
H735        H  0.19645074  0.66543113  0.36499877     0.10400
H736        H  0.23129436  0.67902826  0.36965621     0.10500
H737        H  0.20618245  0.73322390  0.39930100     0.10200
H738        H  0.17143280  0.71982846  0.39431397     0.11300
H739        H  0.25540548  0.70373404  0.38512947     0.11400
H740        H  0.23596776  0.74668353  0.38846390     0.13300
H741        H  0.26107501  0.77334962  0.37873899     0.09800
H742        H  0.29624047  0.78697779  0.37820277     0.11900
H743        H  0.31908678  0.72845113  0.40042157     0.08500
H744        H  0.28401332  0.71496085  0.40121602     0.11200
C745        C  0.81465110  0.85917869  0.23739451    -0.03400
C746        C  0.79764729  0.85237474  0.22575626    -0.06000
C747        C  0.77804256  0.85131744  0.23462689    -0.21100
C748        C  0.77498220  0.85688362  0.25534522     0.24700
C749        C  0.79189383  0.86426524  0.26686032    -0.18600
C750        C  0.81152795  0.86533757  0.25797103    -0.08600
C751        C  0.75385978  0.85517985  0.26409090    -0.18900
C752        C  0.74984404  0.85409651  0.28448165    -0.23700
C753        C  0.72865772  0.85208634  0.29303776     0.26700
C754        C  0.72617652  0.84423987  0.31309120    -0.20400
C755        C  0.70651023  0.84199652  0.32168555    -0.10100
C756        C  0.68889027  0.84769643  0.31041663    -0.10600
C757        C  0.69138678  0.85596742  0.29051154    -0.03600
C758        C  0.71102908  0.85822914  0.28193532    -0.18700
H759        H  0.79951086  0.84758341  0.20983485     0.10400
H760        H  0.76525995  0.84581792  0.22533506     0.10500
H761        H  0.79009790  0.86940387  0.28264902     0.10200
H762        H  0.82430244  0.87075729  0.26730736     0.11300
H763        H  0.74129232  0.85369124  0.25312634     0.11400
H764        H  0.76251889  0.85361840  0.29540891     0.13300
H765        H  0.73949806  0.83963244  0.32207492     0.09800
H766        H  0.70511885  0.83572563  0.33712298     0.11900
H767        H  0.67814010  0.86074327  0.28151338     0.08500
H768        H  0.71224322  0.86508288  0.26676681     0.11200
C769        C  0.57177184  0.83113610  0.35713461    -0.03400
C770        C  0.56803208  0.82135240  0.37614000    -0.06000
C771        C  0.54786824  0.81619361  0.38202239    -0.21100
C772        C  0.53105854  0.82075705  0.36909413     0.24700
C773        C  0.53488031  0.83070707  0.35015161    -0.18600
C774        C  0.55493290  0.83595191  0.34436212    -0.08600
C775        C  0.50999369  0.81386658  0.37522083    -0.18900
C776        C  0.49260560  0.82172153  0.36692343    -0.23700
C777        C  0.47140791  0.81428719  0.37166898     0.26700
C778        C  0.45467488  0.82671625  0.36581112    -0.20400
C779        C  0.43439887  0.82011427  0.36895948    -0.10100
C780        C  0.43034257  0.80080990  0.37795739    -0.10600
C781        C  0.44705699  0.78832342  0.38389368    -0.03600
C782        C  0.46738327  0.79493084  0.38072432    -0.18700
H783        H  0.58069452  0.81732938  0.38627995     0.10400
H784        H  0.54541459  0.80838504  0.39660849     0.10500
H785        H  0.52262443  0.83389344  0.33930221     0.10200
H786        H  0.55726278  0.84327525  0.32951124     0.11300
H787        H  0.50894369  0.80219361  0.38717397     0.11400
H788        H  0.49370891  0.83465266  0.35635706     0.13300
H789        H  0.45729197  0.84159336  0.35862701     0.09800
H790        H  0.42189387  0.83008217  0.36412872     0.11900
H791        H  0.44444666  0.77328375  0.39071486     0.08500
H792        H  0.47975020  0.78457204  0.38492959     0.11200
C793        C  0.21768138  0.86698371  0.82223564    -0.03400
C794        C  0.23753845  0.87565536  0.82090468    -0.06000
C795        C  0.24754767  0.87720181  0.80183168    -0.21100
C796        C  0.23786588  0.87032431  0.78369552     0.24700
C797        C  0.21797764  0.86166092  0.78503890    -0.18600
C798        C  0.20799575  0.86009565  0.80407887    -0.08600
C799        C  0.24934839  0.87132316  0.76387216    -0.18900
C800        C  0.23992639  0.87156603  0.74534014    -0.23700
C801        C  0.25107769  0.87115961  0.72531835     0.26700
C802        C  0.24047458  0.87734476  0.70749024    -0.20400
C803        C  0.24983939  0.87608155  0.68812841    -0.10100
C804        C  0.27002662  0.86843521  0.68612683    -0.10600
C805        C  0.28074773  0.86235195  0.70396479    -0.03600
C806        C  0.27136461  0.86362602  0.72337462    -0.18700
H807        H  0.24543775  0.88107992  0.83461896     0.10400
H808        H  0.26292815  0.88375485  0.80124303     0.10500
H809        H  0.21023932  0.85552427  0.77156442     0.10200
H810        H  0.19275243  0.85323559  0.80458366     0.11300
H811        H  0.26603388  0.87238085  0.76472672     0.11400
H812        H  0.22322514  0.87254417  0.74465063     0.13300
H813        H  0.22479633  0.88303616  0.70852148     0.09800
H814        H  0.24112503  0.88087144  0.67469009     0.11900
H815        H  0.29626807  0.85626695  0.70290339     0.08500
H816        H  0.27986586  0.85811338  0.73663053     0.11200
C817        C  0.27244197  0.80294048  0.62525346    -0.03400
C818        C  0.28511362  0.78599538  0.62999290    -0.06000
C819        C  0.27724943  0.76589555  0.62943720    -0.21100
C820        C  0.25651436  0.76222096  0.62432953     0.24700
C821        C  0.24387519  0.77917961  0.61930617    -0.18600
C822        C  0.25176469  0.79929771  0.61982031    -0.08600
C823        C  0.24893203  0.74050113  0.62395952    -0.18900
C824        C  0.22882767  0.73524007  0.62505943    -0.23700
C825        C  0.22121595  0.71353840  0.62531798     0.26700
C826        C  0.20126698  0.70969451  0.63282619    -0.20400
C827        C  0.19343279  0.68960658  0.63361676    -0.10100
C828        C  0.20534402  0.67281279  0.62679130    -0.10600
C829        C  0.22515141  0.67664748  0.61880992    -0.03600
C830        C  0.23299996  0.69678890  0.61800083    -0.18700
H831        H  0.30115785  0.78824174  0.63411923     0.10400
H832        H  0.28739997  0.75315262  0.63317671     0.10500
H833        H  0.22799777  0.77708244  0.61463831     0.10200
H834        H  0.24163406  0.81201322  0.61597711     0.11300
H835        H  0.26055290  0.72845894  0.62383349     0.11400
H836        H  0.21732692  0.74724031  0.62699919     0.13300
H837        H  0.19175058  0.72228740  0.63834853     0.09800
H838        H  0.17806233  0.68724087  0.63974454     0.11900
H839        H  0.23463070  0.66407231  0.61321679     0.08500
H840        H  0.24815773  0.69908632  0.61142073     0.11200
C841        C  0.32004466  0.85551996  0.56998116    -0.03400
C842        C  0.30834535  0.86115440  0.55260958    -0.06000
C843        C  0.31587372  0.85765958  0.53272142    -0.21100
C844        C  0.33519768  0.84838712  0.52971857     0.24700
C845        C  0.34728117  0.84350246  0.54713005    -0.18600
C846        C  0.33970639  0.84693239  0.56703765    -0.08600
C847        C  0.34176495  0.84366425  0.50824198    -0.18900
C848        C  0.35646933  0.82975558  0.50353656    -0.23700
C849        C  0.36078043  0.82272726  0.48214855     0.26700
C850        C  0.36993833  0.80330895  0.47939681    -0.20400
C851        C  0.37272977  0.79517861  0.45963442    -0.10100
C852        C  0.36654866  0.80639579  0.44214875    -0.10600
C853        C  0.35833262  0.82629267  0.44481169    -0.03600
C854        C  0.35553343  0.83443641  0.46460826    -0.18700
H855        H  0.29319485  0.86798039  0.55434812     0.10400
H856        H  0.30632810  0.86178229  0.51962540     0.10500
H857        H  0.36257190  0.83705028  0.54561115     0.10200
H858        H  0.34918950  0.84266322  0.58012330     0.11300
H859        H  0.33276993  0.85056298  0.49593245     0.11400
H860        H  0.36433360  0.82156355  0.51580765     0.13300
H861        H  0.37438196  0.79409190  0.49262393     0.09800
H862        H  0.37936189  0.77991839  0.45809646     0.11900
H863        H  0.35373093  0.83545879  0.43161025     0.08500
H864        H  0.34920126  0.84980608  0.46601062     0.11200
C865        C  0.29920270  0.11430922  0.71554541    -0.03400
C866        C  0.29831427  0.10785646  0.73624222    -0.06000
C867        C  0.27949308  0.10704389  0.74670809    -0.21100
C868        C  0.26103986  0.11243756  0.73675515     0.24700
C869        C  0.26183577  0.11884294  0.71598774    -0.18600
C870        C  0.28074062  0.11974706  0.70550595    -0.08600
C871        C  0.24161945  0.11207451  0.74899580    -0.18900
C872        C  0.22253122  0.11108279  0.74076294    -0.23700
C873        C  0.20349869  0.11069852  0.75365092     0.26700
C874        C  0.18541391  0.10176724  0.74565967    -0.20400
C875        C  0.16727184  0.10121599  0.75742046    -0.10100
C876        C  0.16682502  0.10973416  0.77740216    -0.10600
C877        C  0.18485189  0.11891727  0.78526149    -0.03600
C878        C  0.20291432  0.11951205  0.77351845    -0.18700
H879        H  0.31222302  0.10365746  0.74449490     0.10400
H880        H  0.27936893  0.10221315  0.76272863     0.10500
H881        H  0.24805100  0.12365750  0.70791478     0.10200
H882        H  0.28091806  0.12493081  0.68960839     0.11300
H883        H  0.24331515  0.11168572  0.76566884     0.11400
H884        H  0.22070244  0.10948938  0.72417716     0.13300
H885        H  0.18535973  0.09508474  0.73031575     0.09800
H886        H  0.15358839  0.09420775  0.75082625     0.11900
H887        H  0.18495899  0.12596029  0.80043650     0.08500
H888        H  0.21622744  0.12728241  0.77995996     0.11200
C889        C  0.31906981  0.92130327  0.63321320    -0.03400
C890        C  0.33904820  0.92449334  0.64105967    -0.06000
C891        C  0.34636407  0.94445793  0.64475389    -0.21100
C892        C  0.33396992  0.96171633  0.64061928     0.24700
C893        C  0.31407795  0.95854377  0.63239655    -0.18600
C894        C  0.30678145  0.93855433  0.62864477    -0.08600
C895        C  0.34177646  0.98249845  0.64659244    -0.18900
C896        C  0.33372090  0.00034591  0.63958976    -0.23700
C897        C  0.34001956  0.02112198  0.64719347     0.26700
C898        C  0.33385141  0.03857103  0.63592280    -0.20400
C899        C  0.33799853  0.05846702  0.64322947    -0.10100
C900        C  0.34835929  0.06136987  0.66207216    -0.10600
C901        C  0.35483290  0.04394214  0.67322889    -0.03600
C902        C  0.35065414  0.02405126  0.66595348    -0.18700
H903        H  0.34893024  0.91153881  0.64474475     0.10400
H904        H  0.36167221  0.94640790  0.65120376     0.10500
H905        H  0.30373464  0.97129274  0.62952022     0.10200
H906        H  0.29126779  0.93661011  0.62272325     0.11300
H907        H  0.35476209  0.98289604  0.65713156     0.11400
H908        H  0.32197174  0.99991673  0.62768064     0.13300
H909        H  0.32549872  0.03681161  0.62153378     0.09800
H910        H  0.33272904  0.07156651  0.63429227     0.11900
H911        H  0.36273315  0.04564369  0.68787347     0.08500
H912        H  0.35520897  0.01117555  0.67551383     0.11200
C913        C  0.76857746  0.29288697  0.39029444    -0.03400
C914        C  0.74852957  0.28998795  0.39802631    -0.06000
C915        C  0.74005565  0.27017121  0.39940606    -0.21100
C916        C  0.75143427  0.25279633  0.39323733     0.24700
C917        C  0.77150252  0.25569885  0.38542244    -0.18600
C918        C  0.77998093  0.27551136  0.38406449    -0.08600
C919        C  0.74141916  0.23214188  0.39422445    -0.18900
C920        C  0.75189793  0.21417266  0.39413526    -0.23700
C921        C  0.74175959  0.19354364  0.39418701     0.26700
C922        C  0.75336020  0.17621644  0.40005595    -0.20400
C923        C  0.74468091  0.15643574  0.39954333    -0.10100
C924        C  0.72421075  0.15354279  0.39296486    -0.10600
C925        C  0.71259062  0.17086235  0.38708029    -0.03600
C926        C  0.72125210  0.19061979  0.38759813    -0.18700
H927        H  0.73931430  0.30304274  0.40291016     0.10400
H928        H  0.72450506  0.26841284  0.40529455     0.10500
H929        H  0.78058232  0.24286375  0.37985237     0.10200
H930        H  0.79541562  0.27722076  0.37787575     0.11300
H931        H  0.72475181  0.23192242  0.39568999     0.11400
H932        H  0.76862645  0.21440479  0.39460493     0.13300
H933        H  0.76923994  0.17798022  0.40499724     0.09800
H934        H  0.75408564  0.14339998  0.40408159     0.11900
H935        H  0.69681824  0.16914859  0.38180515     0.08500
H936        H  0.71193389  0.20337682  0.38228562     0.11200
C937        C  0.72414119  0.08997197  0.33071211    -0.03400
C938        C  0.74463314  0.08352905  0.32783065    -0.06000
C939        C  0.75338056  0.08336428  0.30807605    -0.21100
C940        C  0.74182127  0.08943795  0.29076767     0.24700
C941        C  0.72126183  0.09577669  0.29365743    -0.18600
C942        C  0.71253406  0.09595316  0.31338042    -0.08600
C943        C  0.75206948  0.09002450  0.27022628    -0.18900
C944        C  0.74175573  0.09006010  0.25213621    -0.23700
C945        C  0.75208760  0.09148409  0.23168574     0.26700
C946        C  0.74148565  0.08464046  0.21403569    -0.20400
C947        C  0.75048030  0.08621213  0.19445276    -0.10100
C948        C  0.77025625  0.09482018  0.19211733    -0.10600
C949        C  0.78079326  0.10183370  0.20976474    -0.03600
C950        C  0.77180471  0.10029156  0.22930062    -0.18700
H951        H  0.75402684  0.07892787  0.34086901     0.10400
H952        H  0.76930320  0.07859106  0.30632367     0.10500
H953        H  0.71197508  0.10120415  0.28090313     0.10200
H954        H  0.69674639  0.10114686  0.31507317     0.11300
H955        H  0.76881579  0.08982338  0.27013883     0.11400
H956        H  0.72510406  0.08827680  0.25210161     0.13300
H957        H  0.72618294  0.07801295  0.21540980     0.09800
H958        H  0.74191457  0.08076629  0.18115594     0.11900
H959        H  0.79595355  0.10878433  0.20848509     0.08500
H960        H  0.78020672  0.10646265  0.24235047     0.11200
C961        C  0.67351148  0.03708037  0.38436763    -0.03400
C962        C  0.65285556  0.03468601  0.37822968    -0.06000
C963        C  0.64438332  0.01503268  0.37560534    -0.21100
C964        C  0.65630690  0.99731430  0.37908985     0.24700
C965        C  0.67696424  0.99969563  0.38547684    -0.18600
C966        C  0.68541342  0.01938424  0.38820365    -0.08600
C967        C  0.64706328  0.97684639  0.37433192    -0.18900
C968        C  0.65487329  0.95879512  0.38101847    -0.23700
C969        C  0.64712601  0.93824946  0.37425344     0.26700
C970        C  0.65343632  0.92070328  0.38526569    -0.20400
C971        C  0.64829646  0.90091898  0.37834163    -0.10100
C972        C  0.63683423  0.89823628  0.36011199    -0.10600
C973        C  0.62998259  0.91577239  0.34938377    -0.03600
C974        C  0.63510629  0.93556369  0.35630471    -0.18700
H975        H  0.64324966  0.04802377  0.37521115     0.10400
H976        H  0.62850625  0.01367178  0.37054972     0.10500
H977        H  0.68694247  0.98652682  0.38773689     0.10200
H978        H  0.70142084  0.02073453  0.39281292     0.11300
H979        H  0.63320619  0.97686158  0.36495466     0.11400
H980        H  0.66760279  0.95887614  0.39189437     0.13300
H981        H  0.66281115  0.92228350  0.39903422     0.09800
H982        H  0.65391495  0.88771794  0.38690825     0.11900
H983        H  0.62119923  0.91421297  0.33523186     0.08500
H984        H  0.63031459  0.94851488  0.34697543     0.11200
C985        C  0.80671532  0.26004960  0.63138318    -0.03400
C986        C  0.79087170  0.27372532  0.63712135    -0.06000
C987        C  0.77014164  0.26783389  0.63549118    -0.21100
C988        C  0.76474765  0.24809896  0.62830318     0.24700
C989        C  0.78059372  0.23450221  0.62228906    -0.18600
C990        C  0.80131138  0.24040228  0.62387963    -0.08600
C991        C  0.74251387  0.24236102  0.62696250    -0.18900
C992        C  0.73584396  0.22267098  0.62794419    -0.23700
C993        C  0.71372819  0.21646092  0.62768133     0.26700
C994        C  0.70843893  0.19716304  0.63594615    -0.20400
C995        C  0.68800240  0.19035641  0.63592703    -0.10100
C996        C  0.67225486  0.20261855  0.62745614    -0.10600
C997        C  0.67749434  0.22190955  0.61895545    -0.03600
C998        C  0.69804418  0.22877411  0.61902163    -0.18700
H999        H  0.79447000  0.28904719  0.64279530     0.10400
H1000       H  0.75826798  0.27868112  0.64004356     0.10500
H1001       H  0.77711154  0.21942327  0.61599345     0.10200
H1002       H  0.81310389  0.22958919  0.61906914     0.11300
H1003       H  0.73135204  0.25483124  0.62648583     0.11400
H1004       H  0.74701118  0.21043410  0.63037053     0.13300
H1005       H  0.72018830  0.18730867  0.64259599     0.09800
H1006       H  0.68456922  0.17541201  0.64259411     0.11900
H1007       H  0.66574363  0.23165415  0.61217114     0.08500
H1008       H  0.70157305  0.24350068  0.61198776     0.11200
C1009       C  0.55274166  0.15823668  0.63163120    -0.03400
C1010       C  0.54931393  0.13753013  0.63716834    -0.06000
C1011       C  0.52927318  0.13000877  0.63982962    -0.21100
C1012       C  0.51214455  0.14293837  0.63699609     0.24700
C1013       C  0.51554358  0.16357505  0.63097185    -0.18600
C1014       C  0.53563177  0.17108146  0.62821239    -0.08600
C1015       C  0.49130452  0.13476123  0.64224619    -0.18900
C1016       C  0.47343421  0.14377033  0.63658164    -0.23700
C1017       C  0.45283374  0.13690772  0.64416748     0.26700
C1018       C  0.43505844  0.14312064  0.63342812    -0.20400
C1019       C  0.41536015  0.13845705  0.64102997    -0.10100
C1020       C  0.41301973  0.12759279  0.65967128    -0.10600
C1021       C  0.43080662  0.12109438  0.67024755    -0.03600
C1022       C  0.45045386  0.12574206  0.66266777    -0.18700
H1023       H  0.56215349  0.12717129  0.63980796     0.10400
H1024       H  0.52716365  0.11409581  0.64453968     0.10500
H1025       H  0.50288452  0.17426065  0.62912064     0.10200
H1026       H  0.53776936  0.18713071  0.62404052     0.11300
H1027       H  0.49082719  0.12067196  0.65129052     0.11400
H1028       H  0.47371403  0.15672802  0.62598335     0.13300
H1029       H  0.43641632  0.15190551  0.61926014     0.09800
H1030       H  0.40198276  0.14379005  0.63255684     0.11900
H1031       H  0.42958345  0.11284281  0.68473894     0.08500
H1032       H  0.46362559  0.12121163  0.67184296     0.11200
C1033       C  0.62035498  0.15562722  0.57103857    -0.03400
C1034       C  0.61659319  0.16738785  0.55320225    -0.06000
C1035       C  0.62102369  0.15937677  0.53365534    -0.21100
C1036       C  0.62943256  0.13953115  0.53151740     0.24700
C1037       C  0.63234446  0.12741502  0.54930917    -0.18600
C1038       C  0.62793280  0.13542660  0.56885338    -0.08600
C1039       C  0.63517898  0.13218234  0.51055783    -0.18900
C1040       C  0.64977735  0.11775886  0.50717536    -0.23700
C1041       C  0.65719222  0.11195811  0.48625074     0.26700
C1042       C  0.67695862  0.10333376  0.48424998    -0.20400
C1043       C  0.68508002  0.09881768  0.46476288    -0.10100
C1044       C  0.67351469  0.10274901  0.44684902    -0.10600
C1045       C  0.65336505  0.11051089  0.44889650    -0.03600
C1046       C  0.64523871  0.11498813  0.46837065    -0.18700
H1047       H  0.61059592  0.18295030  0.55434368     0.10400
H1048       H  0.61837930  0.16893023  0.52018991     0.10500
H1049       H  0.63801473  0.11174992  0.54827257     0.10200
H1050       H  0.63070031  0.12585681  0.58227315     0.11300
H1051       H  0.62838779  0.14025616  0.49755988     0.11400
H1052       H  0.65793748  0.11112405  0.52020371     0.13300
H1053       H  0.68638368  0.10058479  0.49779170     0.09800
H1054       H  0.70058328  0.09268990  0.46372194     0.11900
H1055       H  0.64391450  0.11339117  0.43540703     0.08500
H1056       H  0.62963628  0.12081013  0.46926831     0.11200
C1057       C  0.37408898  0.75416609  0.32635265    -0.03400
C1058       C  0.38151957  0.73396323  0.32378182    -0.06000
C1059       C  0.38219900  0.72494415  0.30418527    -0.21100
C1060       C  0.37558323  0.73590267  0.28670425     0.24700
C1061       C  0.36825743  0.75620218  0.28925205    -0.18600
C1062       C  0.36760174  0.76523421  0.30885891    -0.08600
C1063       C  0.37544426  0.72514642  0.26641041    -0.18900
C1064       C  0.37444316  0.73490308  0.24806465    -0.23700
C1065       C  0.37352654  0.72372185  0.22803471     0.26700
C1066       C  0.38054575  0.73366871  0.21011613    -0.20400
C1067       C  0.37973518  0.72369490  0.19096718    -0.10100
C1068       C  0.37167051  0.70359269  0.18929608    -0.10600
C1069       C  0.36428573  0.69377286  0.20718651    -0.03600
C1070       C  0.36513759  0.70373129  0.22633205    -0.18700
H1071       H  0.38664938  0.72501935  0.33693678     0.10400
H1072       H  0.38778878  0.70925782  0.30269848     0.10500
H1073       H  0.36245943  0.76501858  0.27633163     0.10200
H1074       H  0.36169226  0.78079705  0.31033746     0.11300
H1075       H  0.37674629  0.70844550  0.26668816     0.11400
H1076       H  0.37513613  0.75162231  0.24747893     0.13300
H1077       H  0.38682262  0.74915807  0.21096064     0.09800
H1078       H  0.38539828  0.73176957  0.17746308     0.11900
H1079       H  0.35771012  0.67841221  0.20639523     0.08500
H1080       H  0.35884157  0.69584812  0.23964734     0.11200
C1081       C  0.31067628  0.70055852  0.12427425    -0.03400
C1082       C  0.30887279  0.71963507  0.11409967    -0.06000
C1083       C  0.28968899  0.72918005  0.11207111    -0.21100
C1084       C  0.27183955  0.71982236  0.11995490     0.24700
C1085       C  0.27353188  0.70061054  0.12996743    -0.18600
C1086       C  0.29277872  0.69106562  0.13206672    -0.08600
C1087       C  0.25205615  0.73122620  0.11864044    -0.18900
C1088       C  0.23345045  0.72199311  0.11889900    -0.23700
C1089       C  0.21384476  0.73379515  0.11853828     0.26700
C1090       C  0.19608758  0.72445368  0.11039226    -0.20400
C1091       C  0.17719091  0.73482622  0.11062180    -0.10100
C1092       C  0.17561775  0.75469715  0.11926058    -0.10600
C1093       C  0.19341345  0.76405926  0.12740961    -0.03600
C1094       C  0.21232051  0.75372069  0.12709293    -0.18700
H1095       H  0.32234164  0.72736619  0.10789803     0.10400
H1096       H  0.28880589  0.74402143  0.10441615     0.10500
H1097       H  0.26018218  0.69320957  0.13675469     0.10200
H1098       H  0.29368319  0.67644087  0.14011233     0.11300
H1099       H  0.25295876  0.74785805  0.11674624     0.11400
H1100       H  0.23245402  0.70526175  0.11867674     0.13300
H1101       H  0.19683034  0.70905555  0.10389186     0.09800
H1102       H  0.16374013  0.72710875  0.10434698     0.11900
H1103       H  0.19267144  0.77923193  0.13440617     0.08500
H1104       H  0.22553918  0.76114574  0.13412662     0.11200
C1105       C  0.70365010  0.28978259  0.13292109    -0.03400
C1106       C  0.69114291  0.27285184  0.13824684    -0.06000
C1107       C  0.69903909  0.25274987  0.13771822    -0.21100
C1108       C  0.71962945  0.24908265  0.13201349     0.24700
C1109       C  0.73205594  0.26604820  0.12641170    -0.18600
C1110       C  0.72416948  0.28612241  0.12695408    -0.08600
C1111       C  0.72732254  0.22738576  0.13156099    -0.18900
C1112       C  0.74752321  0.22235833  0.13185778    -0.23700
C1113       C  0.75554564  0.20080151  0.13164737     0.26700
C1114       C  0.77612515  0.19749495  0.13755428    -0.20400
C1115       C  0.78450385  0.17763019  0.13771824    -0.10100
C1116       C  0.77254286  0.16051248  0.13180302    -0.10600
C1117       C  0.75205519  0.16379513  0.12542946    -0.03600
C1118       C  0.74363093  0.18371136  0.12531637    -0.18700
H1119       H  0.67523544  0.27511599  0.14283489     0.10400
H1120       H  0.68903517  0.24000737  0.14191488     0.10500
H1121       H  0.74777167  0.26400954  0.12123093     0.10200
H1122       H  0.73419181  0.29879936  0.12263370     0.11300
H1123       H  0.71579679  0.21523204  0.13188508     0.11400
H1124       H  0.75894919  0.23452103  0.13329202     0.13300
H1125       H  0.78575920  0.21034918  0.14226641     0.09800
H1126       H  0.80038237  0.17569619  0.14255593     0.11900
H1127       H  0.74247030  0.15095027  0.12062240     0.08500
H1128       H  0.72792255  0.18556192  0.12002274     0.11200
C1129       C  0.77054936  0.35488733  0.32552785    -0.03400
C1130       C  0.78239383  0.34780912  0.30879084    -0.06000
C1131       C  0.77454092  0.34844381  0.28870461    -0.21100
C1132       C  0.75463143  0.35601192  0.28483326     0.24700
C1133       C  0.74285998  0.36343913  0.30154464    -0.18600
C1134       C  0.75073117  0.36281003  0.32166999    -0.08600
C1135       C  0.74703833  0.35625663  0.26313519    -0.18900
C1136       C  0.72691810  0.35706425  0.25790909    -0.23700
C1137       C  0.71942548  0.35638654  0.23617719     0.26700
C1138       C  0.69905836  0.35002789  0.23239645    -0.20400
C1139       C  0.69142309  0.34886116  0.21223161    -0.10100
C1140       C  0.70395708  0.35419488  0.19532624    -0.10600
C1141       C  0.72420921  0.36102518  0.19910582    -0.03600
C1142       C  0.73185545  0.36218376  0.21929353    -0.18700
H1143       H  0.79774744  0.34168764  0.31119396     0.10400
H1144       H  0.78402153  0.34279907  0.27613303     0.10500
H1145       H  0.72771847  0.37001841  0.29920669     0.10200
H1146       H  0.74127986  0.36855635  0.33420747     0.11300
H1147       H  0.75854457  0.35447816  0.25109680     0.11400
H1148       H  0.71528673  0.35695534  0.26995788     0.13300
H1149       H  0.68906665  0.34569205  0.24509483     0.09800
H1150       H  0.67569625  0.34367912  0.20989987     0.11900
H1151       H  0.73418758  0.36548364  0.18645167     0.08500
H1152       H  0.74739004  0.36787733  0.22153334     0.11200
C1153       C  0.67134693  0.59185349  0.24100057    -0.03400
C1154       C  0.68794268  0.60000083  0.22963975    -0.06000
C1155       C  0.70803259  0.59882791  0.23719524    -0.21100
C1156       C  0.71205555  0.58976590  0.25639907     0.24700
C1157       C  0.69556734  0.58142643  0.26784049    -0.18600
C1158       C  0.67535088  0.58246073  0.26017428    -0.08600
C1159       C  0.73371468  0.58920761  0.26367138    -0.18900
C1160       C  0.73911126  0.59065874  0.28367952    -0.23700
C1161       C  0.76096447  0.59289874  0.29025923     0.26700
C1162       C  0.76551348  0.60405698  0.30828047    -0.20400
C1163       C  0.78598891  0.60711349  0.31445748    -0.10100
C1164       C  0.80234025  0.59890196  0.30278750    -0.10600
C1165       C  0.79774238  0.58742905  0.28493288    -0.03600
C1166       C  0.77730261  0.58436124  0.27878731    -0.18700
H1167       H  0.68544170  0.60737377  0.21484513     0.10400
H1168       H  0.72048923  0.60531338  0.22809744     0.10500
H1169       H  0.69828970  0.57390448  0.28251226     0.10200
H1170       H  0.66290445  0.57587718  0.26919413     0.11300
H1171       H  0.74563076  0.58980678  0.25189381     0.11400
H1172       H  0.72717748  0.59222519  0.29535797     0.13300
H1173       H  0.75319912  0.61070257  0.31742944     0.09800
H1174       H  0.78900240  0.61592455  0.32835891     0.11900
H1175       H  0.80994796  0.58061410  0.27577532     0.08500
H1176       H  0.77437526  0.57510128  0.26517931     0.11200
C1177       C  0.62667821  0.78243537  0.30850459    -0.03400
C1178       C  0.63886210  0.76610678  0.31589842    -0.06000
C1179       C  0.63786003  0.74664739  0.30659062    -0.21100
C1180       C  0.62427923  0.74301031  0.29011255     0.24700
C1181       C  0.61189243  0.75925080  0.28285873    -0.18600
C1182       C  0.61319442  0.77882254  0.29188463    -0.08600
C1183       C  0.62422225  0.72251977  0.27997633    -0.18900
C1184       C  0.60708077  0.71390013  0.27201397    -0.23700
C1185       C  0.60757270  0.69351948  0.26168469     0.26700
C1186       C  0.59151875  0.67935539  0.26502749    -0.20400
C1187       C  0.59210520  0.65980217  0.25582165    -0.10100
C1188       C  0.60838637  0.65445210  0.24255024    -0.10600
C1189       C  0.62405066  0.66891427  0.23863028    -0.03600
C1190       C  0.62376969  0.68820315  0.24828142    -0.18700
H1191       H  0.64946481  0.76847728  0.32862266     0.10400
H1192       H  0.64765972  0.73438043  0.31229731     0.10500
H1193       H  0.60161214  0.75699477  0.26986044     0.10200
H1194       H  0.60362550  0.79112299  0.28587661     0.11300
H1195       H  0.63858409  0.71388550  0.27980548     0.11400
H1196       H  0.59224169  0.72139599  0.27406395     0.13300
H1197       H  0.57879783  0.68325955  0.27513924     0.09800
H1198       H  0.57977800  0.64891799  0.25893116     0.11900
H1199       H  0.63676174  0.66511263  0.22846462     0.08500
H1200       H  0.63611592  0.69904356  0.24511433     0.11200
C1201       C  0.42625496  0.65045185  0.14214524    -0.03400
C1202       C  0.44364636  0.66283099  0.13827644    -0.06000
C1203       C  0.46343656  0.65567178  0.14278102    -0.21100
C1204       C  0.46642672  0.63599221  0.15131539     0.24700
C1205       C  0.44906000  0.62329777  0.15468178    -0.18600
C1206       C  0.42917488  0.63052977  0.15023937    -0.08600
C1207       C  0.48789989  0.62969850  0.15651839    -0.18900
C1208       C  0.49277457  0.61406770  0.16936865    -0.23700
C1209       C  0.51426587  0.60960012  0.17622949     0.26700
C1210       C  0.51718307  0.59801565  0.19432437    -0.20400
C1211       C  0.53700136  0.59458755  0.20214918    -0.10100
C1212       C  0.55439560  0.60256006  0.19193714    -0.10600
C1213       C  0.55157703  0.61341687  0.17336842    -0.03600
C1214       C  0.53177839  0.61682875  0.16553556    -0.18700
H1215       H  0.44198086  0.67825494  0.13205140     0.10400
H1216       H  0.47647795  0.66575303  0.13989233     0.10500
H1217       H  0.45062894  0.60780097  0.16064601     0.10200
H1218       H  0.41608834  0.62054543  0.15320851     0.11300
H1219       H  0.50008693  0.63954371  0.15062950     0.11400
H1220       H  0.48055410  0.60514909  0.17653025     0.13300
H1221       H  0.50403518  0.59200726  0.20273867     0.09800
H1222       H  0.53866304  0.58594172  0.21636230     0.11900
H1223       H  0.56467867  0.61954497  0.16497690     0.08500
H1224       H  0.53042189  0.62510411  0.15111390     0.11200
C1225       C  0.66024583  0.40925332  0.14088999    -0.03400
C1226       C  0.67340253  0.42599933  0.13667004    -0.06000
C1227       C  0.66692982  0.44623725  0.14038913    -0.21100
C1228       C  0.64725461  0.45019923  0.14851881     0.24700
C1229       C  0.63375531  0.43349087  0.15192291    -0.18600
C1230       C  0.64024350  0.41324519  0.14824843    -0.08600
C1231       C  0.64166841  0.47185745  0.15365343    -0.18900
C1232       C  0.62739312  0.47681723  0.16794417    -0.23700
C1233       C  0.62383960  0.49824121  0.17531712     0.26700
C1234       C  0.61556597  0.50106870  0.19513819    -0.20400
C1235       C  0.61293003  0.52087355  0.20323717    -0.10100
C1236       C  0.61834726  0.53835450  0.19159031    -0.10600
C1237       C  0.62603828  0.53558516  0.17147427    -0.03600
C1238       C  0.62869274  0.51573769  0.16336855    -0.18700
H1239       H  0.68887751  0.42346969  0.13090026     0.10400
H1240       H  0.67756230  0.45882032  0.13743151     0.10500
H1241       H  0.61819476  0.43589644  0.15743623     0.10200
H1242       H  0.62964406  0.40069673  0.15141455     0.11300
H1243       H  0.65106567  0.48395519  0.14686419     0.11400
H1244       H  0.61932146  0.46461712  0.17610226     0.13300
H1245       H  0.61153737  0.48787235  0.20459724     0.09800
H1246       H  0.60685110  0.52245814  0.21873701     0.11900
H1247       H  0.63011365  0.54875400  0.16201167     0.08500
H1248       H  0.63444939  0.51423074  0.14776070     0.11200
C1249       C  0.31462916  0.36741509  0.76982276    -0.03400
C1250       C  0.31334704  0.37426878  0.74926412    -0.06000
C1251       C  0.29438663  0.37443334  0.73894258    -0.21100
C1252       C  0.27633136  0.36799961  0.74902046     0.24700
C1253       C  0.27762404  0.36106486  0.76956253    -0.18600
C1254       C  0.29654975  0.36083501  0.77984742    -0.08600
C1255       C  0.25656101  0.36771374  0.73748098    -0.18900
C1256       C  0.23816996  0.36984113  0.74688233    -0.23700
C1257       C  0.21809193  0.36839793  0.73598179     0.26700
C1258       C  0.20070718  0.37736332  0.74521488    -0.20400
C1259       C  0.18122907  0.37521010  0.73627124    -0.10100
C1260       C  0.17868373  0.36392101  0.71790065    -0.10600
C1261       C  0.19610667  0.35509629  0.70849282    -0.03600
C1262       C  0.21562715  0.35722513  0.71748017    -0.18700
H1263       H  0.32701438  0.37935268  0.74108272     0.10400
H1264       H  0.29380175  0.37964417  0.72305871     0.10500
H1265       H  0.26415447  0.35531145  0.77760259     0.10200
H1266       H  0.29703290  0.35525498  0.79560303     0.11300
H1267       H  0.25730783  0.36635792  0.72078922     0.11400
H1268       H  0.23770888  0.37328605  0.76329393     0.13300
H1269       H  0.20217593  0.38594077  0.75951666     0.09800
H1270       H  0.16812647  0.38227779  0.74386070     0.11900
H1271       H  0.19459706  0.34616643  0.69442283     0.08500
H1272       H  0.22855852  0.34956993  0.71022364     0.11200
C1273       C  0.37764399  0.30538140  0.77749160    -0.03400
C1274       C  0.39140489  0.30153237  0.76115718    -0.06000
C1275       C  0.39271123  0.28188306  0.75236889    -0.21100
C1276       C  0.37992971  0.26592072  0.75940481     0.24700
C1277       C  0.36658058  0.26953340  0.77611000    -0.18600
C1278       C  0.36555659  0.28908064  0.78518534    -0.08600
C1279       C  0.38050877  0.24570846  0.74888723    -0.18900
C1280       C  0.36310439  0.23537587  0.74433011    -0.23700
C1281       C  0.36314115  0.21562653  0.73288703     0.26700
C1282       C  0.34663925  0.21106538  0.71961759    -0.20400
C1283       C  0.34587101  0.19218642  0.70918864    -0.10100
C1284       C  0.36129829  0.17734580  0.71238273    -0.10600
C1285       C  0.37783144  0.18190329  0.72564067    -0.03600
C1286       C  0.37884902  0.20095830  0.73569134    -0.18700
H1287       H  0.40103959  0.31376347  0.75503462     0.10400
H1288       H  0.40320961  0.27931072  0.73961181     0.10500
H1289       H  0.35689367  0.25726298  0.78207433     0.10200
H1290       H  0.35490962  0.29156729  0.79782875     0.11300
H1291       H  0.39527019  0.24014783  0.74323532     0.11400
H1292       H  0.34826180  0.24223150  0.74804377     0.13300
H1293       H  0.33433032  0.22212869  0.71734833     0.09800
H1294       H  0.33287829  0.18891573  0.69916683     0.11900
H1295       H  0.38989258  0.17066359  0.72832668     0.08500
H1296       H  0.39156235  0.20391651  0.74614202     0.11200
C1297       C  0.26709009  0.66793990  0.89065828    -0.03400
C1298       C  0.24858424  0.67060351  0.90165928    -0.06000
C1299       C  0.23916131  0.68997621  0.90269039    -0.30700
C1300       C  0.24807320  0.70712959  0.89290677     0.24700
C1301       C  0.26669700  0.70451750  0.88202774    -0.18600
C1302       C  0.27613153  0.68514742  0.88100763    -0.08600
C1303       C  0.23691666  0.72714510  0.89330974    -0.18900
C1304       C  0.24633781  0.74551214  0.89077850    -0.23700
C1305       C  0.23510169  0.76546757  0.89010572     0.26700
C1306       C  0.24582755  0.78368584  0.89489973    -0.20400
C1307       C  0.23615190  0.80289716  0.89333810    -0.10100
C1308       C  0.21557952  0.80430544  0.88662568    -0.10600
C1309       C  0.20477989  0.78605870  0.88192740    -0.03600
C1310       C  0.21441428  0.76683818  0.88363116    -0.18700
H1311       H  0.24120007  0.65765203  0.90923566     0.10400
H1312       H  0.22475761  0.69153986  0.91103960     0.10500
H1313       H  0.27371622  0.71719043  0.87371711     0.10200
H1314       H  0.29024631  0.68355729  0.87219677     0.11300
H1315       H  0.22045242  0.72666548  0.89639788     0.11400
H1316       H  0.26305008  0.74614255  0.88973461     0.13300
H1317       H  0.26181884  0.78305868  0.89976003     0.09800
H1318       H  0.24492007  0.81666432  0.89699834     0.11900
H1319       H  0.18892762  0.78663132  0.87665258     0.08500
H1320       H  0.20579452  0.75321653  0.87923279     0.11200
C1321       C  0.26118605  0.60808024  0.82647180    -0.03400
C1322       C  0.24178951  0.59848063  0.82464363    -0.06000
C1323       C  0.23125757  0.59847738  0.80576786    -0.21100
C1324       C  0.23992848  0.60789426  0.78828424     0.24700
C1325       C  0.25915533  0.61785600  0.79020378    -0.18600
C1326       C  0.26968114  0.61786590  0.80905869    -0.08600
C1327       C  0.22834461  0.60755103  0.76844893    -0.18900
C1328       C  0.23779534  0.60815505  0.74992235    -0.23700
C1329       C  0.22677212  0.60798566  0.72976279     0.26700
C1330       C  0.23779888  0.60223816  0.71202689    -0.20400
C1331       C  0.22854307  0.60290096  0.69255432    -0.10100
C1332       C  0.20801611  0.60953140  0.69028813    -0.10600
C1333       C  0.19686017  0.61513872  0.70804720    -0.03600
C1334       C  0.20612683  0.61440610  0.72759149    -0.18700
H1335       H  0.23474735  0.59092330  0.83779095     0.10400
H1336       H  0.21637213  0.59089971  0.80476147     0.10500
H1337       H  0.26598142  0.62595445  0.77728520     0.10200
H1338       H  0.28441578  0.62572504  0.81002965     0.11300
H1339       H  0.21171800  0.60567839  0.76923569     0.11400
H1340       H  0.25454444  0.60800910  0.74936490     0.13300
H1341       H  0.25373128  0.59732554  0.71321803     0.09800
H1342       H  0.23760816  0.59845663  0.67922679     0.11900
H1343       H  0.18104565  0.62037254  0.70682309     0.08500
H1344       H  0.19723632  0.61944264  0.74079315     0.11200
C1345       C  0.32122465  0.61447769  0.93883541    -0.03400
C1346       C  0.34205335  0.62045248  0.94007808    -0.06000
C1347       C  0.35119272  0.62457205  0.95923271    -0.21100
C1348       C  0.33979167  0.62272135  0.97757839     0.24700
C1349       C  0.31906537  0.61624692  0.97636434    -0.18600
C1350       C  0.30995087  0.61206694  0.95722183    -0.08600
C1351       C  0.34942944  0.62930848  0.99740954    -0.18900
C1352       C  0.34271093  0.62297980  0.01606665    -0.23700
C1353       C  0.35066191  0.63112250  0.03606871     0.26700
C1354       C  0.34671785  0.61983532  0.05414731    -0.20400
C1355       C  0.35202695  0.62777752  0.07352426    -0.10100
C1356       C  0.36131696  0.64732012  0.07531016    -0.10600
C1357       C  0.36577460  0.65843369  0.05719251    -0.03600
C1358       C  0.36045852  0.65048099  0.03778766    -0.18700
H1359       H  0.35119077  0.62238868  0.92620710     0.10400
H1360       H  0.36713691  0.62960333  0.95969318     0.10500
H1361       H  0.30952157  0.61520120  0.99002380     0.10200
H1362       H  0.29382520  0.60767342  0.95679658     0.11300
H1363       H  0.36258589  0.63964432  0.99644937     0.11400
H1364       H  0.33083724  0.61117460  0.01688691     0.13300
H1365       H  0.33908873  0.60496140  0.05331374     0.09800
H1366       H  0.34832695  0.61881838  0.08714921     0.11900
H1367       H  0.37275008  0.67361741  0.05802449     0.08500
H1368       H  0.36329630  0.65996507  0.02434679     0.11200
C1369       C  0.31493136  0.55155085  0.87186525    -0.03400
C1370       C  0.30285620  0.53409210  0.87635815    -0.06000
C1371       C  0.30995368  0.51432387  0.87155130    -0.21100
C1372       C  0.32921437  0.51150725  0.86206879     0.24700
C1373       C  0.34163257  0.52892638  0.85814346    -0.18600
C1374       C  0.33449612  0.54874514  0.86291606    -0.08600
C1375       C  0.33560229  0.49016297  0.85663514    -0.18900
C1376       C  0.34988281  0.48564168  0.84220243    -0.23700
C1377       C  0.35459395  0.46414863  0.83569416     0.26700
C1378       C  0.36270857  0.46074531  0.81588588    -0.20400
C1379       C  0.36649348  0.44068894  0.80885915    -0.10100
C1380       C  0.36231590  0.42360649  0.82157661    -0.10600
C1381       C  0.35474954  0.42702961  0.84160983    -0.03600
C1382       C  0.35107014  0.44706854  0.84866648    -0.18700
H1383       H  0.28774336  0.53569443  0.88330860     0.10400
H1384       H  0.30015844  0.50117968  0.87492459     0.10500
H1385       H  0.35686565  0.52739969  0.85151671     0.10200
H1386       H  0.34427829  0.56188066  0.85950604     0.11300
H1387       H  0.32694713  0.47771420  0.86376555     0.11400
H1388       H  0.35724432  0.49801425  0.83363930     0.13300
H1389       H  0.36574401  0.47362608  0.80565611     0.09800
H1390       H  0.37239632  0.43856285  0.79335510     0.11900
H1391       H  0.35166523  0.41420255  0.85188356     0.08500
H1392       H  0.34560110  0.44903707  0.86431949     0.11200
C1393       C  0.80885937  0.20968414  0.89279108    -0.03400
C1394       C  0.80629646  0.22993701  0.90010577    -0.06000
C1395       C  0.78664429  0.23875376  0.90108137    -0.21100
C1396       C  0.76914119  0.22749943  0.89494069     0.24700
C1397       C  0.77172353  0.20717368  0.88770591    -0.18600
C1398       C  0.79135047  0.19837914  0.88671833    -0.08600
C1399       C  0.74877475  0.23798898  0.89501079    -0.18900
C1400       C  0.73053145  0.22803102  0.89376687    -0.23700
C1401       C  0.71048920  0.23896878  0.89198814     0.26700
C1402       C  0.69225691  0.22867593  0.89764205    -0.20400
C1403       C  0.67307618  0.23835437  0.89553186    -0.10100
C1404       C  0.67178648  0.25847017  0.88751766    -0.10600
C1405       C  0.69002289  0.26865297  0.88165726    -0.03600
C1406       C  0.70912380  0.25901474  0.88376362    -0.18700
H1407       H  0.81948883  0.23907665  0.90482452     0.10400
H1408       H  0.78512899  0.25450900  0.90650563     0.10500
H1409       H  0.75881624  0.19812306  0.88221301     0.10200
H1410       H  0.79281225  0.18275394  0.88093630     0.11300
H1411       H  0.74895131  0.25468775  0.89635966     0.11400
H1412       H  0.73003493  0.21131007  0.89443673     0.13300
H1413       H  0.69286431  0.21311294  0.90373269     0.09800
H1414       H  0.65928094  0.23004663  0.90003998     0.11900
H1415       H  0.68956439  0.28407759  0.87522512     0.08500
H1416       H  0.72266502  0.26719702  0.87842802     0.11200
C1417       C  0.61008565  0.25952866  0.82279247    -0.03400
C1418       C  0.61879833  0.26837082  0.80500327    -0.06000
C1419       C  0.61720377  0.25842336  0.78590514    -0.21100
C1420       C  0.60669993  0.23945442  0.78416908     0.24700
C1421       C  0.59815424  0.23055779  0.80196541    -0.18600
C1422       C  0.59973002  0.24050850  0.82105870    -0.08600
C1423       C  0.60518296  0.22811460  0.76428833    -0.18900
C1424       C  0.60604093  0.23755059  0.74578752    -0.23700
C1425       C  0.60539309  0.22641722  0.72573408     0.26700
C1426       C  0.60028785  0.23755040  0.70787495    -0.20400
C1427       C  0.60062427  0.22806023  0.68850200    -0.10100
C1428       C  0.60625572  0.20720759  0.68653514    -0.10600
C1429       C  0.61121072  0.19597421  0.70441768    -0.03600
C1430       C  0.61084873  0.20546716  0.72381307    -0.18700
H1431       H  0.62707084  0.28289091  0.80586040     0.10400
H1432       H  0.62463562  0.26543074  0.77269430     0.10500
H1433       H  0.59017277  0.21586665  0.80108208     0.10200
H1434       H  0.59291389  0.23323004  0.83447967     0.11300
H1435       H  0.60251452  0.21158786  0.76507115     0.11400
H1436       H  0.60669127  0.25428989  0.74516459     0.13300
H1437       H  0.59619204  0.25373271  0.70889144     0.09800
H1438       H  0.59681134  0.23718691  0.67502400     0.11900
H1439       H  0.61576967  0.17992636  0.70340222     0.08500
H1440       H  0.61548378  0.19646628  0.73708064     0.11200
C1441       C  0.65843203  0.34370274  0.07643288    -0.03400
C1442       C  0.63882705  0.33492159  0.07334117    -0.06000
C1443       C  0.63142910  0.33119473  0.05341325    -0.21100
C1444       C  0.64330623  0.33625121  0.03600167     0.24700
C1445       C  0.66276979  0.34552567  0.03902651    -0.18600
C1446       C  0.67021162  0.34922955  0.05903843    -0.08600
C1447       C  0.63536539  0.33008825  0.01527108    -0.18900
C1448       C  0.64281482  0.33709790  0.99712669    -0.23700
C1449       C  0.63560276  0.32921043  0.97671139     0.26700
C1450       C  0.63841673  0.34144511  0.95902374    -0.20400
C1451       C  0.63303133  0.33397438  0.93943030    -0.10100
C1452       C  0.62476341  0.31402688  0.93709029    -0.10600
C1453       C  0.62172564  0.30186856  0.95480979    -0.03600
C1454       C  0.62718560  0.30928561  0.97434954    -0.18700
H1455       H  0.62931053  0.33047828  0.08635436     0.10400
H1456       H  0.61644470  0.32397124  0.05161098     0.10500
H1457       H  0.67264854  0.34931335  0.02611957     0.10200
H1458       H  0.68538737  0.35600703  0.06087993     0.11300
H1459       H  0.62254372  0.31928784  0.01509440     0.11400
H1460       H  0.65435076  0.34924926  0.99702584     0.13300
H1461       H  0.64501435  0.35676798  0.96034776     0.09800
H1462       H  0.63564550  0.34370195  0.92608383     0.11900
H1463       H  0.61571999  0.28630462  0.95353467     0.08500
H1464       H  0.62543232  0.29903216  0.98740765     0.11200
C1465       C  0.56063736  0.31703913  0.86847158    -0.03400
C1466       C  0.56040500  0.33582672  0.85761087    -0.06000
C1467       C  0.54175708  0.34491432  0.85182472    -0.21100
C1468       C  0.52287642  0.33556489  0.85684376     0.24700
C1469       C  0.52306641  0.31676339  0.86778416    -0.18600
C1470       C  0.54175649  0.30765332  0.87358076    -0.08600
C1471       C  0.50354182  0.34516309  0.84908639    -0.18900
C1472       C  0.48465888  0.34093819  0.85670650    -0.23700
C1473       C  0.46506956  0.34864709  0.84750186     0.26700
C1474       C  0.44667371  0.34601493  0.85865946    -0.20400
C1475       C  0.42761885  0.35088336  0.84980533    -0.10100
C1476       C  0.42653802  0.35851001  0.82952026    -0.10600
C1477       C  0.44495479  0.36189720  0.81860589    -0.03600
C1478       C  0.46399890  0.35693339  0.82740246    -0.18700
H1479       H  0.57467119  0.34339379  0.85325030     0.10400
H1480       H  0.54209677  0.35923811  0.84319263     0.10500
H1481       H  0.50892492  0.30863167  0.87135913     0.10200
H1482       H  0.54141513  0.29303855  0.88168324     0.11300
H1483       H  0.50519349  0.35627897  0.83667912     0.11400
H1484       H  0.48329566  0.33119677  0.87027909     0.13300
H1485       H  0.44698621  0.33963194  0.87412759     0.09800
H1486       H  0.41371310  0.34813067  0.85865461     0.11900
H1487       H  0.44464148  0.36767184  0.80290632     0.08500
H1488       H  0.47758456  0.35885522  0.81795961     0.11200
loop_ 
_geom_bond_atom_site_label_1 
_geom_bond_atom_site_label_2 
_geom_bond_distance 
_geom_bond_site_symmetry_2 
_ccdc_geom_bond_type 
O1           Cu9   1.998       .  S
O1           C11   1.277       .  A
O2           Cu9   1.995       .  S
O2           C12   1.277       .  A
O3           Cu9   2.014       .  S
O3           C13   1.279       .  A
O4           Cu9   2.018       .  S
O4           C14   1.279       .  A
O5          Cu10   2.008       .  S
O5           C14   1.278       .  A
O6          Cu10   2.003       .  S
O6           C13   1.277       .  A
O7          Cu10   2.015       .  S
O7           C12   1.279       .  A
O8          Cu10   2.019       .  S
O8           C11   1.280       .  A
Cu9         Cu10   2.370       .  S
C11        C1465   1.482       .  S
C12        C1404   1.479       .  S
C13        C1417   1.481       .  S
C14        C1452   1.484       .  S
O15         Cu23   2.007       .  S
O15          C25   1.278       .  A
O16         Cu23   2.006       .  S
O16          C26   1.278       .  A
O17         Cu23   2.013       .  S
O17          C27   1.279       .  A
O18         Cu23   2.013       .  S
O18          C28   1.279       .  A
O19         Cu24   2.012       .  S
O19          C28   1.279       .  A
O20         Cu24   2.011       .  S
O20          C27   1.279       .  A
O21         Cu24   2.010       .  S
O21          C26   1.279       .  A
O22         Cu24   2.010       .  S
O22          C25   1.278       .  A
Cu23        Cu24   2.370       .  S
C25        C1369   1.481       .  S
C26        C1297   1.481       .  S
C27        C1321   1.483       .  S
C28        C1345   1.483       .  S
O29         Cu37   2.005       .  S
O29          C39   1.278       .  A
O30         Cu37   2.003       .  S
O30          C40   1.278       .  A
O31         Cu37   2.008       .  S
O31          C41   1.278       .  A
O32         Cu37   2.007       .  S
O32          C42   1.278       .  A
O33         Cu38   2.004       .  S
O33          C42   1.277       .  A
O34         Cu38   2.001       .  S
O34          C41   1.277       .  A
O35         Cu38   2.011       .  S
O35          C40   1.278       .  A
O36         Cu38   2.008       .  S
O36          C39   1.279       .  A
Cu37        Cu38   2.371       .  S
C39        C1476   1.480       .  S
C40        C1249   1.480       .  S
C41        C1273   1.476       .  S
C42        C1380   1.479       .  S
O43         Cu51   2.009       .  S
O43          C53   1.278       .  A
O44         Cu51   2.007       .  S
O44          C54   1.278       .  A
O45         Cu51   1.994       .  S
O45          C55   1.277       .  A
O46         Cu51   2.002       .  S
O46          C56   1.278       .  A
O47         Cu52   2.014       .  S
O47          C56   1.279       .  A
O48         Cu52   2.022       .  S
O48          C55   1.280       .  A
O49         Cu52   2.010       .  S
O49          C54   1.278       .  A
O50         Cu52   2.006       .  S
O50          C53   1.278       .  A
Cu51        Cu52   2.371       .  S
C53        C1236   1.480       .  S
C54        C1188   1.474       .  S
C55        C1153   1.481       .  S
C56        C1212   1.481       .  S
O57         Cu65   2.022       .  S
O57          C67   1.280       .  A
O58         Cu65   2.017       .  S
O58          C68   1.279       .  A
O59         Cu65   2.009       .  S
O59          C69   1.279       .  A
O60         Cu65   2.007       .  S
O60          C70   1.278       .  A
O61         Cu66   2.009       .  S
O61          C70   1.278       .  A
O62         Cu66   2.013       .  S
O62          C69   1.279       .  A
O63         Cu66   2.008       .  S
O63          C68   1.278       .  A
O64         Cu66   2.008       .  S
O64          C67   1.278       .  A
Cu65        Cu66   2.370       .  S
C67        C1441   1.486       .  S
C68        C1140   1.484       .  S
C69        C1105   1.483       .  S
C70        C1225   1.481       .  S
O71         Cu79   2.012       .  S
O71          C81   1.279       .  A
O72         Cu79   2.012       .  S
O72          C82   1.279       .  A
O73         Cu79   2.015       .  S
O73          C83   1.279       .  A
O74         Cu79   2.019       .  S
O74          C84   1.279       .  A
O75         Cu80   2.002       .  S
O75          C84   1.278       .  A
O76         Cu80   1.999       .  S
O76          C83   1.277       .  A
O77         Cu80   2.010       .  S
O77          C82   1.278       .  A
O78         Cu80   2.012       .  S
O78          C81   1.279       .  A
Cu79        Cu80   2.370       .  S
C81        C1356   1.484       .  S
C82        C1068   1.482       .  S
C83        C1081   1.480       .  S
C84        C1201   1.482       .  S
O85         Cu93   2.004       .  S
O85          C95   1.278       .  A
O86         Cu93   2.006       .  S
O86          C96   1.278       .  A
O87         Cu93   2.023       .  S
O87          C97   1.280       .  A
O88         Cu93   2.025       .  S
O88          C98   1.280       .  A
O89         Cu94   2.000       .  S
O89          C98   1.277       .  A
O90         Cu94   1.999       .  S
O90          C97   1.277       .  A
O91         Cu94   2.006       .  S
O91          C96   1.278       .  A
O92         Cu94   2.009       .  S
O92          C95   1.278       .  A
Cu93        Cu94   2.370       .  S
C95        C1428   1.480       .  S
C96        C1033   1.480       .  S
C97        C1009   1.482       .  S
C98         C996   1.484       .  S
O99        Cu107   2.017       .  S
O99         C109   1.280       .  A
O100       Cu107   2.017       .  S
O100        C110   1.279       .  A
O101       Cu107   2.010       .  S
O101        C111   1.278       .  A
O102       Cu107   2.010       .  S
O102        C112   1.278       .  A
O103       Cu108   2.001       .  S
O103        C112   1.278       .  A
O104       Cu108   2.005       .  S
O104        C111   1.278       .  A
O105       Cu108   2.001       .  S
O105        C110   1.277       .  A
O106       Cu108   1.998       .  S
O106        C109   1.277       .  A
Cu107      Cu108   2.371       .  S
C109       C1044   1.480       .  S
C110        C937   1.481       .  S
C111        C924   1.481       .  S
C112        C961   1.478       .  S
O113       Cu121   2.001       .  S
O113        C123   1.277       .  A
O114       Cu121   2.004       .  S
O114        C124   1.278       .  A
O115       Cu121   2.001       .  S
O115        C125   1.277       .  A
O116       Cu121   2.008       .  S
O116        C126   1.279       .  A
O117       Cu122   2.017       .  S
O117        C126   1.279       .  A
O118       Cu122   2.023       .  S
O118        C125   1.280       .  A
O119       Cu122   2.011       .  S
O119        C124   1.279       .  A
O120       Cu122   2.008       .  S
O120        C123   1.278       .  A
Cu121      Cu122   2.371       .  S
C123       C1284   1.471       .  S
C124        C900   1.481       .  S
C125       C1020   1.484       .  S
C126        C865   1.484       .  S
O127       Cu135   2.014       .  S
O127        C137   1.279       .  A
O128       Cu135   2.010       .  S
O128        C138   1.279       .  A
O129       Cu135   2.002       .  S
O129        C139   1.277       .  A
O130       Cu135   2.004       .  S
O130        C140   1.277       .  A
O131       Cu136   2.017       .  S
O131        C140   1.280       .  A
O132       Cu136   2.015       .  S
O132        C139   1.279       .  A
O133       Cu136   1.996       .  S
O133        C138   1.277       .  A
O134       Cu136   1.995       .  S
O134        C137   1.277       .  A
Cu135      Cu136   2.371       .  S
C137        C804   1.479       .  S
C138        C841   1.478       .  S
C139        C889   1.481       .  S
C140        C817   1.482       .  S
O141       Cu149   2.006       .  S
O141        C151   1.278       .  A
O142       Cu149   2.007       .  S
O142        C152   1.278       .  A
O143       Cu149   2.012       .  S
O143        C153   1.279       .  A
O144       Cu149   2.019       .  S
O144        C154   1.279       .  A
O145       Cu150   1.994       .  S
O145        C154   1.277       .  A
O146       Cu150   2.001       .  S
O146        C153   1.277       .  A
O147       Cu150   2.007       .  S
O147        C152   1.278       .  A
O148       Cu150   2.006       .  S
O148        C151   1.278       .  A
Cu149      Cu150   2.371       .  S
C151        C972   1.479       .  S
C152       C1177   1.478       .  S
C153        C756   1.480       .  S
C154        C769   1.481       .  S
O155       Cu163   2.005       .  S
O155        C165   1.278       .  A
O156       Cu163   2.004       .  S
O156        C166   1.277       .  A
O157       Cu163   2.010       .  S
O157        C167   1.279       .  A
O158       Cu163   2.013       .  S
O158        C168   1.279       .  A
O159       Cu164   2.012       .  S
O159        C168   1.279       .  A
O160       Cu164   2.007       .  S
O160        C167   1.278       .  A
O161       Cu164   2.005       .  S
O161        C166   1.278       .  A
O162       Cu164   2.007       .  S
O162        C165   1.278       .  A
Cu163      Cu164   2.371       .  S
C165       C1057   1.480       .  S
C166        C852   1.478       .  S
C167        C780   1.481       .  S
C168        C732   1.484       .  S
O169       Cu177   2.003       .  S
O169        C179   1.278       .  A
O170       Cu177   2.000       .  S
O170        C180   1.277       .  A
O171       Cu177   2.009       .  S
O171        C181   1.278       .  A
O172       Cu177   2.010       .  S
O172        C182   1.279       .  A
O173       Cu178   2.008       .  S
O173        C182   1.278       .  A
O174       Cu178   2.002       .  S
O174        C181   1.278       .  A
O175       Cu178   2.014       .  S
O175        C180   1.279       .  A
O176       Cu178   2.015       .  S
O176        C179   1.279       .  A
Cu177      Cu178   2.371       .  S
C179        C697   1.481       .  S
C180       C1092   1.480       .  S
C181        C649   1.479       .  S
C182        C673   1.482       .  S
O183       Cu191   2.010       .  S
O183        C193   1.279       .  A
O184       Cu191   2.010       .  S
O184        C194   1.278       .  A
O185       Cu191   2.008       .  S
O185        C195   1.278       .  A
O186       Cu191   2.012       .  S
O186        C196   1.279       .  A
O187       Cu192   2.014       .  S
O187        C196   1.279       .  A
O188       Cu192   2.015       .  S
O188        C195   1.279       .  A
O189       Cu192   2.001       .  S
O189        C194   1.277       .  A
O190       Cu192   2.005       .  S
O190        C193   1.278       .  A
Cu191      Cu192   2.370       .  S
C193        C708   1.481       .  S
C194        C745   1.479       .  S
C195        C601   1.483       .  S
C196        C625   1.484       .  S
O197       Cu205   2.010       .  S
O197        C207   1.278       .  A
O198       Cu205   2.009       .  S
O198        C208   1.279       .  A
O199       Cu205   2.009       .  S
O199        C209   1.279       .  A
O200       Cu205   2.008       .  S
O200        C210   1.278       .  A
O201       Cu206   2.006       .  S
O201        C210   1.278       .  A
O202       Cu206   2.007       .  S
O202        C209   1.278       .  A
O203       Cu206   2.003       .  S
O203        C208   1.278       .  A
O204       Cu206   2.006       .  S
O204        C207   1.278       .  A
Cu205      Cu206   2.371       .  S
C207       C1308   1.480       .  S
C208        C577   1.480       .  S
C209        C684   1.481       .  S
C210        C793   1.480       .  S
O211       Cu219   2.008       .  S
O211        C221   1.278       .  A
O212       Cu219   2.006       .  S
O212        C222   1.278       .  A
O213       Cu219   2.016       .  S
O213        C223   1.279       .  A
O214       Cu219   2.007       .  S
O214        C224   1.279       .  A
O215       Cu220   2.009       .  S
O215        C224   1.278       .  A
O216       Cu220   2.005       .  S
O216        C223   1.278       .  A
O217       Cu220   2.003       .  S
O217        C222   1.278       .  A
O218       Cu220   2.006       .  S
O218        C221   1.278       .  A
Cu219      Cu220   2.371       .  S
C221        C588   1.480       .  S
C222        C529   1.475       .  S
C223        C876   1.483       .  S
C224        C564   1.481       .  S
O225       Cu233   2.014       .  S
O225        C235   1.279       .  A
O226       Cu233   2.017       .  S
O226        C236   1.279       .  A
O227       Cu233   2.015       .  S
O227        C237   1.279       .  A
O228       Cu233   2.013       .  S
O228        C238   1.279       .  A
O229       Cu234   2.011       .  S
O229        C238   1.279       .  A
O230       Cu234   2.012       .  S
O230        C237   1.279       .  A
O231       Cu234   1.998       .  S
O231        C236   1.277       .  A
O232       Cu234   1.995       .  S
O232        C235   1.276       .  A
Cu233      Cu234   2.370       .  S
C235        C516   1.478       .  S
C236        C948   1.481       .  S
C237       C1116   1.484       .  S
C238        C636   1.483       .  S
O239       Cu247   1.997       .  S
O239        C249   1.277       .  A
O240       Cu247   1.998       .  S
O240        C250   1.277       .  A
O241       Cu247   1.996       .  S
O241        C251   1.277       .  A
O242       Cu247   1.992       .  S
O242        C252   1.276       .  A
O243       Cu248   2.017       .  S
O243        C252   1.280       .  A
O244       Cu248   2.020       .  S
O244        C251   1.279       .  A
O245       Cu248   2.014       .  S
O245        C250   1.279       .  A
O246       Cu248   2.013       .  S
O246        C249   1.279       .  A
Cu247      Cu248   2.371       .  S
C249        C553   1.479       .  S
C250       C1393   1.479       .  S
C251        C481   1.480       .  S
C252        C505   1.478       .  S
O253       Cu261   2.018       .  S
O253        C263   1.280       .  A
O254       Cu261   2.018       .  S
O254        C264   1.280       .  A
O255       Cu261   2.002       .  S
O255        C265   1.277       .  A
O256       Cu261   2.004       .  S
O256        C266   1.278       .  A
O257       Cu262   2.024       .  S
O257        C266   1.280       .  A
O258       Cu262   2.024       .  S
O258        C265   1.280       .  A
O259       Cu262   2.004       .  S
O259        C264   1.278       .  A
O260       Cu262   2.004       .  S
O260        C263   1.277       .  A
Cu261      Cu262   2.369       .  S
C263        C468   1.483       .  S
C264        C828   1.483       .  S
C265       C1332   1.484       .  S
C266        C444   1.485       .  S
O267       Cu275   2.024       .  S
O267        C277   1.280       .  A
O268       Cu275   2.014       .  S
O268        C278   1.279       .  A
O269       Cu275   2.002       .  S
O269        C279   1.277       .  A
O270       Cu275   2.010       .  S
O270        C280   1.279       .  A
O271       Cu276   2.011       .  S
O271        C280   1.279       .  A
O272       Cu276   2.013       .  S
O272        C279   1.279       .  A
O273       Cu276   2.000       .  S
O273        C278   1.277       .  A
O274       Cu276   1.997       .  S
O274        C277   1.277       .  A
Cu275      Cu276   2.371       .  S
C277        C420   1.482       .  S
C278       C1260   1.479       .  S
C279        C540   1.475       .  S
C280        C457   1.483       .  S
O281       Cu289   2.023       .  S
O281        C291   1.280       .  A
O282       Cu289   2.021       .  S
O282        C292   1.280       .  A
O283       Cu289   2.007       .  S
O283        C293   1.278       .  A
O284       Cu289   2.010       .  S
O284        C294   1.278       .  A
O285       Cu290   2.020       .  S
O285        C294   1.280       .  A
O286       Cu290   2.020       .  S
O286        C293   1.280       .  A
O287       Cu290   1.997       .  S
O287        C292   1.277       .  A
O288       Cu290   1.999       .  S
O288        C291   1.277       .  A
Cu289      Cu290   2.369       .  S
C291        C433   1.484       .  S
C292        C660   1.481       .  S
C293        C721   1.484       .  S
C294        C385   1.486       .  S
O295       Cu303   1.998       .  S
O295        C305   1.277       .  A
O296       Cu303   2.000       .  S
O296        C306   1.277       .  A
O297       Cu303   2.016       .  S
O297        C307   1.280       .  A
O298       Cu303   2.018       .  S
O298        C308   1.279       .  A
O299       Cu304   2.007       .  S
O299        C308   1.278       .  A
O300       Cu304   2.011       .  S
O300        C307   1.278       .  A
O301       Cu304   2.016       .  S
O301        C306   1.279       .  A
O302       Cu304   2.013       .  S
O302        C305   1.279       .  A
Cu303      Cu304   2.370       .  S
C305        C372   1.479       .  S
C306        C492   1.480       .  S
C307        C985   1.485       .  S
C308        C409   1.484       .  S
O309       Cu317   2.012       .  S
O309        C319   1.279       .  A
O310       Cu317   2.017       .  S
O310        C320   1.279       .  A
O311       Cu317   2.012       .  S
O311        C321   1.278       .  A
O312       Cu317   2.012       .  S
O312        C322   1.279       .  A
O313       Cu318   2.011       .  S
O313        C322   1.278       .  A
O314       Cu318   2.009       .  S
O314        C321   1.279       .  A
O315       Cu318   2.007       .  S
O315        C320   1.278       .  A
O316       Cu318   2.007       .  S
O316        C319   1.278       .  A
Cu317      Cu318   2.370       .  S
C319        C337   1.482       .  S
C320        C612   1.484       .  S
C321       C1164   1.482       .  S
C322        C396   1.483       .  S
O323       Cu331   2.000       .  S
O323        C333   1.277       .  A
O324       Cu331   2.002       .  S
O324        C334   1.277       .  A
O325       Cu331   2.009       .  S
O325        C335   1.279       .  A
O326       Cu331   2.007       .  S
O326        C336   1.278       .  A
O327       Cu332   2.005       .  S
O327        C336   1.278       .  A
O328       Cu332   2.010       .  S
O328        C335   1.278       .  A
O329       Cu332   2.016       .  S
O329        C334   1.279       .  A
O330       Cu332   2.018       .  S
O330        C333   1.279       .  A
Cu331      Cu332   2.370       .  S
C333        C348   1.482       .  S
C334        C913   1.482       .  S
C335       C1129   1.482       .  S
C336        C361   1.479       .  S
C337        C338   1.405       .  A
C337        C342   1.405       .  A
C338        C339   1.398       .  A
C338        H351   1.083       .  S
C339        C340   1.404       .  A
C339        H352   1.083       .  S
C340        C341   1.409       .  A
C340        C343   1.489       .  S
C341        C342   1.398       .  A
C341        H353   1.081       .  S
C342        H354   1.083       .  S
C343        C344   1.347       .  D
C343        H355   1.084       .  S
C344        C345   1.489       .  S
C344        H356   1.085       .  S
C345        C346   1.403       .  A
C345        C350   1.410       .  A
C346        C347   1.396       .  A
C346        H357   1.084       .  S
C347        C348   1.405       .  A
C347        H358   1.083       .  S
C348        C349   1.405       .  A
C349        C350   1.401       .  A
C349        H359   1.083       .  S
C350        H360   1.081       .  S
C361        C362   1.405       .  A
C361        C366   1.405       .  A
C362        C363   1.396       .  A
C362        H375   1.083       .  S
C363        C364   1.402       .  A
C363        H376   1.084       .  S
C364        C365   1.407       .  A
C364        C367   1.483       .  S
C365        C366   1.398       .  A
C365        H377   1.082       .  S
C366        H378   1.083       .  S
C367        C368   1.346       .  D
C367        H379   1.085       .  S
C368        C369   1.485       .  S
C368        H380   1.086       .  S
C369        C370   1.402       .  A
C369        C374   1.409       .  A
C370        C371   1.395       .  A
C370        H381   1.084       .  S
C371        C372   1.405       .  A
C371        H382   1.083       .  S
C372        C373   1.405       .  A
C373        C374   1.399       .  A
C373        H383   1.083       .  S
C374        H384   1.081       .  S
C385        C386   1.407       .  A
C385        C390   1.406       .  A
C386        C387   1.399       .  A
C386        H399   1.082       .  S
C387        C388   1.403       .  A
C387        H400   1.084       .  S
C388        C389   1.409       .  A
C388        C391   1.490       .  S
C389        C390   1.400       .  A
C389        H401   1.081       .  S
C390        H402   1.084       .  S
C391        C392   1.348   1_455  D
C391        H403   1.084       .  S
C392        C393   1.492       .  S
C392        H404   1.085       .  S
C393        C394   1.404       .  A
C393        C398   1.410       .  A
C394        C395   1.397       .  A
C394        H405   1.084       .  S
C395        C396   1.404       .  A
C395        H406   1.082       .  S
C396        C397   1.406       .  A
C397        C398   1.401       .  A
C397        H407   1.083       .  S
C398        H408   1.080       .  S
C409        C410   1.406       .  A
C409        C414   1.406       .  A
C410        C411   1.400       .  A
C410        H423   1.083       .  S
C411        C412   1.404       .  A
C411        H424   1.084       .  S
C412        C413   1.408       .  A
C412        C415   1.491       .  S
C413        C414   1.398       .  A
C413        H425   1.081       .  S
C414        H426   1.083       .  S
C415        C416   1.349       .  D
C415        H427   1.084   1_655  S
C416        C417   1.492   1_655  S
C416        H428   1.085       .  S
C417        C418   1.404       .  A
C417        C422   1.411       .  A
C418        C419   1.396       .  A
C418        H429   1.084       .  S
C419        C420   1.404       .  A
C419        H430   1.083       .  S
C420        C421   1.405       .  A
C421        C422   1.402       .  A
C421        H431   1.083       .  S
C422        H432   1.080       .  S
C433        C434   1.405       .  A
C433        C438   1.406       .  A
C434        C435   1.401       .  A
C434        H447   1.083       .  S
C435        C436   1.405       .  A
C435        H448   1.083       .  S
C436        C437   1.407       .  A
C436        C439   1.490       .  S
C437        C438   1.397       .  A
C437        H449   1.081       .  S
C438        H450   1.083       .  S
C439        C440   1.350       .  D
C439        H451   1.085       .  S
C440        C441   1.491       .  S
C440        H452   1.085       .  S
C441        C442   1.406       .  A
C441        C446   1.407       .  A
C442        C443   1.401       .  A
C442        H453   1.083       .  S
C443        C444   1.405       .  A
C443        H454   1.083       .  S
C444        C445   1.407       .  A
C445        C446   1.398       .  A
C445        H455   1.083       .  S
C446        H456   1.081       .  S
C457        C458   1.405       .  A
C457        C462   1.405       .  A
C458        C459   1.398       .  A
C458        H471   1.083       .  S
C459        C460   1.404       .  A
C459        H472   1.083       .  S
C460        C461   1.409       .  A
C460        C463   1.490       .  S
C461        C462   1.399       .  A
C461        H473   1.081       .  S
C462        H474   1.083       .  S
C463        C464   1.348       .  D
C463        H475   1.084       .  S
C464        C465   1.490       .  S
C464        H476   1.084       .  S
C465        C466   1.404       .  A
C465        C470   1.409       .  A
C466        C467   1.398       .  A
C466        H477   1.083       .  S
C467        C468   1.406       .  A
C467        H478   1.083       .  S
C468        C469   1.405       .  A
C469        C470   1.400       .  A
C469        H479   1.083       .  S
C470        H480   1.081       .  S
C481        C482   1.406       .  A
C481        C486   1.404       .  A
C482        C483   1.402       .  A
C482        H495   1.083       .  S
C483        C484   1.405       .  A
C483        H496   1.083       .  S
C484        C485   1.406       .  A
C484        C487   1.486       .  S
C485        C486   1.394       .  A
C485        H497   1.081       .  S
C486        H498   1.083       .  S
C487        C488   1.348       .  D
C487        H499   1.085       .  S
C488        C489   1.486       .  S
C488        H500   1.086       .  S
C489        C490   1.403       .  A
C489        C494   1.408       .  A
C490        C491   1.396       .  A
C490        H501   1.084       .  S
C491        C492   1.405       .  A
C491        H502   1.083       .  S
C492        C493   1.405       .  A
C493        C494   1.399       .  A
C493        H503   1.083       .  S
C494        H504   1.081       .  S
C505        C506   1.406       .  A
C505        C510   1.404       .  A
C506        C507   1.395       .  A
C506        H519   1.083       .  S
C507        C508   1.401       .  A
C507        H520   1.083       .  S
C508        C509   1.409       .  A
C508        C511   1.483   1_556  S
C509        C510   1.398       .  A
C509        H521   1.081       .  S
C510        H522   1.083       .  S
C511        C512   1.345       .  D
C511        H523   1.085   1_554  S
C512        C513   1.485       .  S
C512        H524   1.085       .  S
C513        C514   1.402       .  A
C513        C518   1.409       .  A
C514        C515   1.396       .  A
C514        H525   1.083       .  S
C515        C516   1.406       .  A
C515        H526   1.083       .  S
C516        C517   1.404       .  A
C517        C518   1.397       .  A
C517        H527   1.083       .  S
C518        H528   1.080       .  S
C529        C530   1.405       .  A
C529        C534   1.404       .  A
C530        C531   1.399       .  A
C530        H543   1.083       .  S
C531        C532   1.402       .  A
C531        H544   1.083       .  S
C532        C533   1.405       .  A
C532        C535   1.479       .  S
C533        C534   1.395       .  A
C533        H545   1.083       .  S
C534        H546   1.083       .  S
C535        C536   1.344       .  D
C535        H547   1.086       .  S
C536        C537   1.479       .  S
C536        H548   1.086       .  S
C537        C538   1.402       .  A
C537        C542   1.406       .  A
C538        C539   1.397       .  A
C538        H549   1.083       .  S
C539        C540   1.404       .  A
C539        H550   1.084       .  S
C540        C541   1.404       .  A
C541        C542   1.398       .  A
C541        H551   1.083       .  S
C542        H552   1.083       .  S
C553        C554   1.404       .  A
C553        C558   1.405       .  A
C554        C555   1.395       .  A
C554        H567   1.083       .  S
C555        C556   1.403       .  A
C555        H568   1.084       .  S
C556        C557   1.410       .  A
C556        C559   1.487       .  S
C557        C558   1.399       .  A
C557        H569   1.080       .  S
C558        H570   1.083       .  S
C559        C560   1.347   1_655  D
C559        H571   1.085       .  S
C560        C561   1.487       .  S
C560        H572   1.084       .  S
C561        C562   1.403       .  A
C561        C566   1.408       .  A
C562        C563   1.399       .  A
C562        H573   1.083       .  S
C563        C564   1.406       .  A
C563        H574   1.083       .  S
C564        C565   1.404       .  A
C565        C566   1.396       .  A
C565        H575   1.083       .  S
C566        H576   1.081       .  S
C577        C578   1.406       .  A
C577        C582   1.405       .  A
C578        C579   1.397       .  A
C578        H591   1.083       .  S
C579        C580   1.402       .  A
C579        H592   1.083       .  S
C580        C581   1.408       .  A
C580        C583   1.484       .  S
C581        C582   1.398       .  A
C581        H593   1.081       .  S
C582        H594   1.083       .  S
C583        C584   1.348       .  D
C583        H595   1.082       .  S
C584        C585   1.490   1_565  S
C584        H596   1.085       .  S
C585        C586   1.404       .  A
C585        C590   1.410       .  A
C586        C587   1.397       .  A
C586        H597   1.084       .  S
C587        C588   1.405       .  A
C587        H598   1.083       .  S
C588        C589   1.404       .  A
C589        C590   1.397       .  A
C589        H599   1.083       .  S
C590        H600   1.079       .  S
C601        C602   1.406       .  A
C601        C606   1.405       .  A
C602        C603   1.398       .  A
C602        H615   1.083       .  S
C603        C604   1.404       .  A
C603        H616   1.083       .  S
C604        C605   1.410       .  A
C604        C607   1.491       .  S
C605        C606   1.400       .  A
C605        H617   1.081       .  S
C606        H618   1.083       .  S
C607        C608   1.347       .  D
C607        H619   1.085       .  S
C608        C609   1.489       .  S
C608        H620   1.085       .  S
C609        C610   1.403       .  A
C609        C614   1.409       .  A
C610        C611   1.396       .  A
C610        H621   1.084       .  S
C611        C612   1.405       .  A
C611        H622   1.083       .  S
C612        C613   1.407       .  A
C613        C614   1.402       .  A
C613        H623   1.083       .  S
C614        H624   1.081       .  S
C625        C626   1.404       .  A
C625        C630   1.406       .  A
C626        C627   1.397       .  A
C626        H639   1.083       .  S
C627        C628   1.405       .  A
C627        H640   1.083       .  S
C628        C629   1.410       .  A
C628        C631   1.493       .  S
C629        C630   1.401       .  A
C629        H641   1.080       .  S
C630        H642   1.083       .  S
C631        C632   1.351       .  D
C631        H643   1.084       .  S
C632        C633   1.491   1_565  S
C632        H644   1.082       .  S
C633        C634   1.405       .  A
C633        C638   1.408       .  A
C634        C635   1.400       .  A
C634        H645   1.083   1_545  S
C635        C636   1.406       .  A
C635        H646   1.083       .  S
C636        C637   1.405       .  A
C637        C638   1.398       .  A
C637        H647   1.083       .  S
C638        H648   1.081       .  S
C649        C650   1.405       .  A
C649        C654   1.405       .  A
C650        C651   1.398       .  A
C650        H663   1.083       .  S
C651        C652   1.403       .  A
C651        H664   1.083       .  S
C652        C653   1.407       .  A
C652        C655   1.484       .  S
C653        C654   1.396       .  A
C653        H665   1.082       .  S
C654        H666   1.083       .  S
C655        C656   1.346       .  D
C655        H667   1.085       .  S
C656        C657   1.485       .  S
C656        H668   1.085       .  S
C657        C658   1.402       .  A
C657        C662   1.409       .  A
C658        C659   1.394       .  A
C658        H669   1.083       .  S
C659        C660   1.405       .  A
C659        H670   1.083       .  S
C660        C661   1.405       .  A
C661        C662   1.401       .  A
C661        H671   1.083       .  S
C662        H672   1.081       .  S
C673        C674   1.405       .  A
C673        C678   1.405       .  A
C674        C675   1.398       .  A
C674        H687   1.083       .  S
C675        C676   1.404       .  A
C675        H688   1.083       .  S
C676        C677   1.409       .  A
C676        C679   1.488       .  S
C677        C678   1.398       .  A
C677        H689   1.080       .  S
C678        H690   1.083       .  S
C679        C680   1.348   1_554  D
C679        H691   1.084       .  S
C680        C681   1.489       .  S
C680        H692   1.084       .  S
C681        C682   1.404       .  A
C681        C686   1.409       .  A
C682        C683   1.399       .  A
C682        H693   1.083       .  S
C683        C684   1.405       .  A
C683        H694   1.083       .  S
C684        C685   1.404       .  A
C685        C686   1.397       .  A
C685        H695   1.083       .  S
C686        H696   1.081       .  S
C697        C698   1.405       .  A
C697        C702   1.405       .  A
C698        C699   1.396       .  A
C698        H711   1.083       .  S
C699        C700   1.403       .  A
C699        H712   1.083       .  S
C700        C701   1.408       .  A
C700        C703   1.487   1_455  S
C701        C702   1.400       .  A
C701        H713   1.081       .  S
C702        H714   1.083       .  S
C703        C704   1.349       .  D
C703        H715   1.082       .  S
C704        C705   1.492       .  S
C704        H716   1.085   1_655  S
C705        C706   1.405       .  A
C705        C710   1.410       .  A
C706        C707   1.398       .  A
C706        H717   1.083       .  S
C707        C708   1.404       .  A
C707        H718   1.083       .  S
C708        C709   1.405       .  A
C709        C710   1.398       .  A
C709        H719   1.083       .  S
C710        H720   1.078       .  S
C721        C722   1.406       .  A
C721        C726   1.406       .  A
C722        C723   1.398       .  A
C722        H735   1.083       .  S
C723        C724   1.404       .  A
C723        H736   1.084       .  S
C724        C725   1.409       .  A
C724        C727   1.490       .  S
C725        C726   1.400       .  A
C725        H737   1.081       .  S
C726        H738   1.083       .  S
C727        C728   1.348       .  D
C727        H739   1.086       .  S
C728        C729   1.489       .  S
C728        H740   1.085       .  S
C729        C730   1.404       .  A
C729        C734   1.408       .  A
C730        C731   1.398       .  A
C730        H741   1.084       .  S
C731        C732   1.405       .  A
C731        H742   1.083       .  S
C732        C733   1.407       .  A
C733        C734   1.400       .  A
C733        H743   1.083       .  S
C734        H744   1.081       .  S
C745        C746   1.405       .  A
C745        C750   1.405       .  A
C746        C747   1.396       .  A
C746        H759   1.083       .  S
C747        C748   1.403       .  A
C747        H760   1.083       .  S
C748        C749   1.408       .  A
C748        C751   1.485       .  S
C749        C750   1.398       .  A
C749        H761   1.081       .  S
C750        H762   1.083       .  S
C751        C752   1.347       .  D
C751        H763   1.084       .  S
C752        C753   1.486       .  S
C752        H764   1.084       .  S
C753        C754   1.404       .  A
C753        C758   1.408       .  A
C754        C755   1.398       .  A
C754        H765   1.083       .  S
C755        C756   1.405       .  A
C755        H766   1.083       .  S
C756        C757   1.405       .  A
C757        C758   1.396       .  A
C757        H767   1.083       .  S
C758        H768   1.081       .  S
C769        C770   1.405       .  A
C769        C774   1.405       .  A
C770        C771   1.401       .  A
C770        H783   1.083       .  S
C771        C772   1.406       .  A
C771        H784   1.083       .  S
C772        C773   1.408       .  A
C772        C775   1.489       .  S
C773        C774   1.394       .  A
C773        H785   1.080       .  S
C774        H786   1.083       .  S
C775        C776   1.349       .  D
C775        H787   1.084       .  S
C776        C777   1.487       .  S
C776        H788   1.084       .  S
C777        C778   1.404       .  A
C777        C782   1.408       .  A
C778        C779   1.396       .  A
C778        H789   1.083       .  S
C779        C780   1.404       .  A
C779        H790   1.083       .  S
C780        C781   1.406       .  A
C781        C782   1.399       .  A
C781        H791   1.083       .  S
C782        H792   1.081       .  S
C793        C794   1.406       .  A
C793        C798   1.405       .  A
C794        C795   1.398       .  A
C794        H807   1.083       .  S
C795        C796   1.403       .  A
C795        H808   1.083       .  S
C796        C797   1.408       .  A
C796        C799   1.485       .  S
C797        C798   1.396       .  A
C797        H809   1.081       .  S
C798        H810   1.083       .  S
C799        C800   1.346       .  D
C799        H811   1.085       .  S
C800        C801   1.484       .  S
C800        H812   1.085       .  S
C801        C802   1.402       .  A
C801        C806   1.409       .  A
C802        C803   1.395       .  A
C802        H813   1.083       .  S
C803        C804   1.405       .  A
C803        H814   1.083       .  S
C804        C805   1.405       .  A
C805        C806   1.399       .  A
C805        H815   1.083       .  S
C806        H816   1.081       .  S
C817        C818   1.406       .  A
C817        C822   1.405       .  A
C818        C819   1.398       .  A
C818        H831   1.083       .  S
C819        C820   1.404       .  A
C819        H832   1.084       .  S
C820        C821   1.409       .  A
C820        C823   1.489       .  S
C821        C822   1.399       .  A
C821        H833   1.081       .  S
C822        H834   1.083       .  S
C823        C824   1.348       .  D
C823        H835   1.085       .  S
C824        C825   1.489       .  S
C824        H836   1.085       .  S
C825        C826   1.403       .  A
C825        C830   1.409       .  A
C826        C827   1.397       .  A
C826        H837   1.084       .  S
C827        C828   1.406       .  A
C827        H838   1.083       .  S
C828        C829   1.406       .  A
C829        C830   1.400       .  A
C829        H839   1.083       .  S
C830        H840   1.081       .  S
C841        C842   1.405       .  A
C841        C846   1.404       .  A
C842        C843   1.395       .  A
C842        H855   1.083       .  S
C843        C844   1.403       .  A
C843        H856   1.083       .  S
C844        C845   1.409       .  A
C844        C847   1.486       .  S
C845        C846   1.397       .  A
C845        H857   1.080       .  S
C846        H858   1.083       .  S
C847        C848   1.347       .  D
C847        H859   1.084       .  S
C848        C849   1.484       .  S
C848        H860   1.083       .  S
C849        C850   1.403       .  A
C849        C854   1.408       .  A
C850        C851   1.395       .  A
C850        H861   1.083       .  S
C851        C852   1.404       .  A
C851        H862   1.083       .  S
C852        C853   1.406       .  A
C853        C854   1.398       .  A
C853        H863   1.083       .  S
C854        H864   1.081       .  S
C865        C866   1.405       .  A
C865        C870   1.407       .  A
C866        C867   1.396       .  A
C866        H879   1.083       .  S
C867        C868   1.403       .  A
C867        H880   1.084       .  S
C868        C869   1.408       .  A
C868        C871   1.487       .  S
C869        C870   1.402       .  A
C869        H881   1.081       .  S
C870        H882   1.083       .  S
C871        C872   1.348       .  D
C871        H883   1.085       .  S
C872        C873   1.489       .  S
C872        H884   1.085       .  S
C873        C874   1.405       .  A
C873        C878   1.407       .  A
C874        C875   1.401       .  A
C874        H885   1.083       .  S
C875        C876   1.406       .  A
C875        H886   1.083       .  S
C876        C877   1.405       .  A
C877        C878   1.396       .  A
C877        H887   1.083       .  S
C878        H888   1.081       .  S
C889        C890   1.406       .  A
C889        C894   1.405       .  A
C890        C891   1.397       .  A
C890        H903   1.083       .  S
C891        C892   1.403       .  A
C891        H904   1.083       .  S
C892        C893   1.409       .  A
C892        C895   1.488       .  S
C893        C894   1.399       .  A
C893        H905   1.081       .  S
C894        H906   1.083       .  S
C895        C896   1.348   1_565  D
C895        H907   1.084       .  S
C896        C897   1.489       .  S
C896        H908   1.084   1_545  S
C897        C898   1.404       .  A
C897        C902   1.409       .  A
C898        C899   1.398       .  A
C898        H909   1.083       .  S
C899        C900   1.405       .  A
C899        H910   1.083       .  S
C900        C901   1.405       .  A
C901        C902   1.397       .  A
C901        H911   1.083       .  S
C902        H912   1.080       .  S
C913        C914   1.405       .  A
C913        C918   1.406       .  A
C914        C915   1.398       .  A
C914        H927   1.083       .  S
C915        C916   1.404       .  A
C915        H928   1.083       .  S
C916        C917   1.408       .  A
C916        C919   1.487       .  S
C917        C918   1.398       .  A
C917        H929   1.081       .  S
C918        H930   1.083       .  S
C919        C920   1.348       .  D
C919        H931   1.084       .  S
C920        C921   1.488       .  S
C920        H932   1.085       .  S
C921        C922   1.404       .  A
C921        C926   1.408       .  A
C922        C923   1.399       .  A
C922        H933   1.083       .  S
C923        C924   1.405       .  A
C923        H934   1.083       .  S
C924        C925   1.405       .  A
C925        C926   1.397       .  A
C925        H935   1.083       .  S
C926        H936   1.080       .  S
C937        C938   1.405       .  A
C937        C942   1.406       .  A
C938        C939   1.399       .  A
C938        H951   1.083       .  S
C939        C940   1.405       .  A
C939        H952   1.083       .  S
C940        C941   1.407       .  A
C940        C943   1.487       .  S
C941        C942   1.397       .  A
C941        H953   1.081       .  S
C942        H954   1.083       .  S
C943        C944   1.348       .  D
C943        H955   1.085       .  S
C944        C945   1.487       .  S
C944        H956   1.085       .  S
C945        C946   1.404       .  A
C945        C950   1.407       .  A
C946        C947   1.399       .  A
C946        H957   1.084       .  S
C947        C948   1.405       .  A
C947        H958   1.083       .  S
C948        C949   1.406       .  A
C949        C950   1.396       .  A
C949        H959   1.083       .  S
C950        H960   1.081       .  S
C961        C962   1.405       .  A
C961        C966   1.405       .  A
C962        C963   1.396       .  A
C962        H975   1.083       .  S
C963        C964   1.403   1_545  A
C963        H976   1.083       .  S
C964        C965   1.409       .  A
C964        C967   1.486       .  S
C965        C966   1.398   1_565  A
C965        H977   1.081       .  S
C966        H978   1.083       .  S
C967        C968   1.346       .  D
C967        H979   1.084       .  S
C968        C969   1.487       .  S
C968        H980   1.084       .  S
C969        C970   1.403       .  A
C969        C974   1.409       .  A
C970        C971   1.397       .  A
C970        H981   1.083       .  S
C971        C972   1.405       .  A
C971        H982   1.083       .  S
C972        C973   1.404       .  A
C973        C974   1.397       .  A
C973        H983   1.083       .  S
C974        H984   1.080       .  S
C985        C986   1.407       .  A
C985        C990   1.405       .  A
C986        C987   1.400       .  A
C986        H999   1.083       .  S
C987        C988   1.404       .  A
C987       H1000   1.083       .  S
C988        C989   1.408       .  A
C988        C991   1.490       .  S
C989        C990   1.399       .  A
C989       H1001   1.081       .  S
C990       H1002   1.083       .  S
C991        C992   1.347       .  D
C991       H1003   1.085       .  S
C992        C993   1.488       .  S
C992       H1004   1.085       .  S
C993        C994   1.402       .  A
C993        C998   1.409       .  A
C994        C995   1.395       .  A
C994       H1005   1.084       .  S
C995        C996   1.406       .  A
C995       H1006   1.083       .  S
C996        C997   1.407       .  A
C997        C998   1.403       .  A
C997       H1007   1.083       .  S
C998       H1008   1.081       .  S
C1009      C1010   1.406       .  A
C1009      C1014   1.405       .  A
C1010      C1011   1.397       .  A
C1010      H1023   1.083       .  S
C1011      C1012   1.404       .  A
C1011      H1024   1.083       .  S
C1012      C1013   1.410       .  A
C1012      C1015   1.489       .  S
C1013      C1014   1.400       .  A
C1013      H1025   1.081       .  S
C1014      H1026   1.083       .  S
C1015      C1016   1.348       .  D
C1015      H1027   1.085       .  S
C1016      C1017   1.490       .  S
C1016      H1028   1.085       .  S
C1017      C1018   1.405       .  A
C1017      C1022   1.408       .  A
C1018      C1019   1.401       .  A
C1018      H1029   1.083       .  S
C1019      C1020   1.406       .  A
C1019      H1030   1.083       .  S
C1020      C1021   1.406       .  A
C1021      C1022   1.397       .  A
C1021      H1031   1.083       .  S
C1022      H1032   1.081       .  S
C1033      C1034   1.405       .  A
C1033      C1038   1.405       .  A
C1034      C1035   1.397       .  A
C1034      H1047   1.083       .  S
C1035      C1036   1.404       .  A
C1035      H1048   1.083       .  S
C1036      C1037   1.407       .  A
C1036      C1039   1.485       .  S
C1037      C1038   1.397       .  A
C1037      H1049   1.082       .  S
C1038      H1050   1.083       .  S
C1039      C1040   1.348       .  D
C1039      H1051   1.085       .  S
C1040      C1041   1.486       .  S
C1040      H1052   1.085       .  S
C1041      C1042   1.404       .  A
C1041      C1046   1.407       .  A
C1042      C1043   1.398       .  A
C1042      H1053   1.083       .  S
C1043      C1044   1.404       .  A
C1043      H1054   1.083       .  S
C1044      C1045   1.406       .  A
C1045      C1046   1.397       .  A
C1045      H1055   1.083       .  S
C1046      H1056   1.081       .  S
C1057      C1058   1.405       .  A
C1057      C1062   1.405       .  A
C1058      C1059   1.397       .  A
C1058      H1071   1.083       .  S
C1059      C1060   1.404       .  A
C1059      H1072   1.083       .  S
C1060      C1061   1.408       .  A
C1060      C1063   1.487       .  S
C1061      C1062   1.398       .  A
C1061      H1073   1.081       .  S
C1062      H1074   1.083       .  S
C1063      C1064   1.347       .  D
C1063      H1075   1.085       .  S
C1064      C1065   1.486       .  S
C1064      H1076   1.084       .  S
C1065      C1066   1.403       .  A
C1065      C1070   1.408       .  A
C1066      C1067   1.398       .  A
C1066      H1077   1.083       .  S
C1067      C1068   1.406       .  A
C1067      H1078   1.083       .  S
C1068      C1069   1.405       .  A
C1069      C1070   1.398       .  A
C1069      H1079   1.083       .  S
C1070      H1080   1.082       .  S
C1081      C1082   1.406       .  A
C1081      C1086   1.406       .  A
C1082      C1083   1.395       .  A
C1082      H1095   1.083       .  S
C1083      C1084   1.401       .  A
C1083      H1096   1.083       .  S
C1084      C1085   1.408       .  A
C1084      C1087   1.483       .  S
C1085      C1086   1.399       .  A
C1085      H1097   1.082       .  S
C1086      H1098   1.083       .  S
C1087      C1088   1.345       .  D
C1087      H1099   1.086       .  S
C1088      C1089   1.484       .  S
C1088      H1100   1.085       .  S
C1089      C1090   1.402       .  A
C1089      C1094   1.408       .  A
C1090      C1091   1.398       .  A
C1090      H1101   1.083       .  S
C1091      C1092   1.407       .  A
C1091      H1102   1.083       .  S
C1092      C1093   1.405       .  A
C1093      C1094   1.397       .  A
C1093      H1103   1.083       .  S
C1094      H1104   1.082       .  S
C1105      C1106   1.406       .  A
C1105      C1110   1.405       .  A
C1106      C1107   1.400       .  A
C1106      H1119   1.083       .  S
C1107      C1108   1.405       .  A
C1107      H1120   1.083       .  S
C1108      C1109   1.409       .  A
C1108      C1111   1.492       .  S
C1109      C1110   1.398       .  A
C1109      H1121   1.080       .  S
C1110      H1122   1.083       .  S
C1111      C1112   1.350       .  D
C1111      H1123   1.084       .  S
C1112      C1113   1.491       .  S
C1112      H1124   1.084       .  S
C1113      C1114   1.404       .  A
C1113      C1118   1.409       .  A
C1114      C1115   1.397       .  A
C1114      H1125   1.083       .  S
C1115      C1116   1.405       .  A
C1115      H1126   1.083       .  S
C1116      C1117   1.407       .  A
C1117      C1118   1.401       .  A
C1117      H1127   1.083       .  S
C1118      H1128   1.081       .  S
C1129      C1130   1.405       .  A
C1129      C1134   1.406       .  A
C1130      C1131   1.397       .  A
C1130      H1143   1.083       .  S
C1131      C1132   1.403       .  A
C1131      H1144   1.083       .  S
C1132      C1133   1.409       .  A
C1132      C1135   1.489       .  S
C1133      C1134   1.400       .  A
C1133      H1145   1.081       .  S
C1134      H1146   1.083       .  S
C1135      C1136   1.348       .  D
C1135      H1147   1.085       .  S
C1136      C1137   1.489       .  S
C1136      H1148   1.085       .  S
C1137      C1138   1.403       .  A
C1137      C1142   1.409       .  A
C1138      C1139   1.398       .  A
C1138      H1149   1.083       .  S
C1139      C1140   1.406       .  A
C1139      H1150   1.083       .  S
C1140      C1141   1.406       .  A
C1141      C1142   1.400       .  A
C1141      H1151   1.083       .  S
C1142      H1152   1.081       .  S
C1153      C1154   1.405       .  A
C1153      C1158   1.407       .  A
C1154      C1155   1.393       .  A
C1154      H1167   1.083       .  S
C1155      C1156   1.400       .  A
C1155      H1168   1.084       .  S
C1156      C1157   1.407       .  A
C1156      C1159   1.481       .  S
C1157      C1158   1.403       .  A
C1157      H1169   1.082       .  S
C1158      H1170   1.083       .  S
C1159      C1160   1.345       .  D
C1159      H1171   1.086       .  S
C1160      C1161   1.486       .  S
C1160      H1172   1.086       .  S
C1161      C1162   1.403       .  A
C1161      C1166   1.407       .  A
C1162      C1163   1.399       .  A
C1162      H1173   1.083       .  S
C1163      C1164   1.406       .  A
C1163      H1174   1.083       .  S
C1164      C1165   1.405       .  A
C1165      C1166   1.397       .  A
C1165      H1175   1.083       .  S
C1166      H1176   1.082       .  S
C1177      C1178   1.405       .  A
C1177      C1182   1.405       .  A
C1178      C1179   1.398       .  A
C1178      H1191   1.083       .  S
C1179      C1180   1.402       .  A
C1179      H1192   1.083       .  S
C1180      C1181   1.405       .  A
C1180      C1183   1.480       .  S
C1181      C1182   1.398       .  A
C1181      H1193   1.083       .  S
C1182      H1194   1.083       .  S
C1183      C1184   1.345       .  D
C1183      H1195   1.087       .  S
C1184      C1185   1.480       .  S
C1184      H1196   1.086       .  S
C1185      C1186   1.403       .  A
C1185      C1190   1.405       .  A
C1186      C1187   1.400       .  A
C1186      H1197   1.083       .  S
C1187      C1188   1.404       .  A
C1187      H1198   1.084       .  S
C1188      C1189   1.403       .  A
C1189      C1190   1.396       .  A
C1189      H1199   1.083       .  S
C1190      H1200   1.083       .  S
C1201      C1202   1.405       .  A
C1201      C1206   1.406       .  A
C1202      C1203   1.395       .  A
C1202      H1215   1.083       .  S
C1203      C1204   1.403       .  A
C1203      H1216   1.083       .  S
C1204      C1205   1.410       .  A
C1204      C1207   1.489       .  S
C1205      C1206   1.402       .  A
C1205      H1217   1.081       .  S
C1206      H1218   1.083       .  S
C1207      C1208   1.349       .  D
C1207      H1219   1.084       .  S
C1208      C1209   1.491       .  S
C1208      H1220   1.084       .  S
C1209      C1210   1.405       .  A
C1209      C1214   1.409       .  A
C1210      C1211   1.399       .  A
C1210      H1221   1.083       .  S
C1211      C1212   1.405       .  A
C1211      H1222   1.083       .  S
C1212      C1213   1.405       .  A
C1213      C1214   1.397       .  A
C1213      H1223   1.083       .  S
C1214      H1224   1.081       .  S
C1225      C1226   1.405       .  A
C1225      C1230   1.405       .  A
C1226      C1227   1.398       .  A
C1226      H1239   1.083       .  S
C1227      C1228   1.403       .  A
C1227      H1240   1.083       .  S
C1228      C1229   1.408       .  A
C1228      C1231   1.487       .  S
C1229      C1230   1.398       .  A
C1229      H1241   1.081       .  S
C1230      H1242   1.083       .  S
C1231      C1232   1.347       .  D
C1231      H1243   1.085       .  S
C1232      C1233   1.485       .  S
C1232      H1244   1.085       .  S
C1233      C1234   1.403       .  A
C1233      C1238   1.408       .  A
C1234      C1235   1.396       .  A
C1234      H1245   1.083       .  S
C1235      C1236   1.405       .  A
C1235      H1246   1.083       .  S
C1236      C1237   1.406       .  A
C1237      C1238   1.399       .  A
C1237      H1247   1.083       .  S
C1238      H1248   1.082       .  S
C1249      C1250   1.406       .  A
C1249      C1254   1.405       .  A
C1250      C1251   1.399       .  A
C1250      H1263   1.083       .  S
C1251      C1252   1.403       .  A
C1251      H1264   1.083       .  S
C1252      C1253   1.407       .  A
C1252      C1255   1.483       .  S
C1253      C1254   1.396       .  A
C1253      H1265   1.082       .  S
C1254      H1266   1.083       .  S
C1255      C1256   1.345       .  D
C1255      H1267   1.085       .  S
C1256      C1257   1.483       .  S
C1256      H1268   1.086       .  S
C1257      C1258   1.402       .  A
C1257      C1262   1.408       .  A
C1258      C1259   1.395       .  A
C1258      H1269   1.084       .  S
C1259      C1260   1.405       .  A
C1259      H1270   1.083       .  S
C1260      C1261   1.405       .  A
C1261      C1262   1.399       .  A
C1261      H1271   1.083       .  S
C1262      H1272   1.082       .  S
C1273      C1274   1.406       .  A
C1273      C1278   1.405       .  A
C1274      C1275   1.396       .  A
C1274      H1287   1.083       .  S
C1275      C1276   1.400       .  A
C1275      H1288   1.083       .  S
C1276      C1277   1.405       .  A
C1276      C1279   1.476       .  S
C1277      C1278   1.397       .  A
C1277      H1289   1.083       .  S
C1278      H1290   1.083       .  S
C1279      C1280   1.343       .  D
C1279      H1291   1.086       .  S
C1280      C1281   1.478       .  S
C1280      H1292   1.087       .  S
C1281      C1282   1.403       .  A
C1281      C1286   1.405       .  A
C1282      C1283   1.397       .  A
C1282      H1293   1.083       .  S
C1283      C1284   1.403       .  A
C1283      H1294   1.083       .  S
C1284      C1285   1.404       .  A
C1285      C1286   1.396       .  A
C1285      H1295   1.083       .  S
C1286      H1296   1.083       .  S
C1297      C1298   1.406       .  A
C1297      C1302   1.405       .  A
C1298      C1299   1.398       .  A
C1298      H1311   1.083       .  S
C1299      C1300   1.403       .  A
C1299      H1312   1.083       .  S
C1300      C1301   1.408       .  A
C1300      C1303   1.485       .  S
C1301      C1302   1.398       .  A
C1301      H1313   1.081       .  S
C1302      H1314   1.083       .  S
C1303      C1304   1.346       .  D
C1303      H1315   1.086       .  S
C1304      C1305   1.485       .  S
C1304      H1316   1.086       .  S
C1305      C1306   1.403       .  A
C1305      C1310   1.407       .  A
C1306      C1307   1.398       .  A
C1306      H1317   1.084       .  S
C1307      C1308   1.405       .  A
C1307      H1318   1.083       .  S
C1308      C1309   1.406       .  A
C1309      C1310   1.398       .  A
C1309      H1319   1.083       .  S
C1310      H1320   1.081       .  S
C1321      C1322   1.406       .  A
C1321      C1326   1.406       .  A
C1322      C1323   1.400       .  A
C1322      H1335   1.083       .  S
C1323      C1324   1.403       .  A
C1323      H1336   1.083       .  S
C1324      C1325   1.408       .  A
C1324      C1327   1.488       .  S
C1325      C1326   1.398       .  A
C1325      H1337   1.082       .  S
C1326      H1338   1.083       .  S
C1327      C1328   1.347       .  D
C1327      H1339   1.085       .  S
C1328      C1329   1.488       .  S
C1328      H1340   1.086       .  S
C1329      C1330   1.403       .  A
C1329      C1334   1.409       .  A
C1330      C1331   1.397       .  A
C1330      H1341   1.084       .  S
C1331      C1332   1.406       .  A
C1331      H1342   1.083       .  S
C1332      C1333   1.406       .  A
C1333      C1334   1.401       .  A
C1333      H1343   1.083       .  S
C1334      H1344   1.081       .  S
C1345      C1346   1.406       .  A
C1345      C1350   1.405       .  A
C1346      C1347   1.400       .  A
C1346      H1359   1.083       .  S
C1347      C1348   1.404       .  A
C1347      H1360   1.083       .  S
C1348      C1349   1.409       .  A
C1348      C1351   1.490       .  S
C1349      C1350   1.399       .  A
C1349      H1361   1.081       .  S
C1350      H1362   1.083       .  S
C1351      C1352   1.348   1_556  D
C1351      H1363   1.085       .  S
C1352      C1353   1.489       .  S
C1352      H1364   1.085       .  S
C1353      C1354   1.404       .  A
C1353      C1358   1.409       .  A
C1354      C1355   1.398       .  A
C1354      H1365   1.083       .  S
C1355      C1356   1.405       .  A
C1355      H1366   1.083       .  S
C1356      C1357   1.406       .  A
C1357      C1358   1.400       .  A
C1357      H1367   1.083       .  S
C1358      H1368   1.081       .  S
C1369      C1370   1.405       .  A
C1369      C1374   1.406       .  A
C1370      C1371   1.396       .  A
C1370      H1383   1.083       .  S
C1371      C1372   1.403       .  A
C1371      H1384   1.083       .  S
C1372      C1373   1.408       .  A
C1372      C1375   1.486       .  S
C1373      C1374   1.399       .  A
C1373      H1385   1.081       .  S
C1374      H1386   1.083       .  S
C1375      C1376   1.348       .  D
C1375      H1387   1.085       .  S
C1376      C1377   1.486       .  S
C1376      H1388   1.085       .  S
C1377      C1378   1.404       .  A
C1377      C1382   1.408       .  A
C1378      C1379   1.398       .  A
C1378      H1389   1.083       .  S
C1379      C1380   1.406       .  A
C1379      H1390   1.083       .  S
C1380      C1381   1.404       .  A
C1381      C1382   1.396       .  A
C1381      H1391   1.083       .  S
C1382      H1392   1.081       .  S
C1393      C1394   1.404       .  A
C1393      C1398   1.405       .  A
C1394      C1395   1.398       .  A
C1394      H1407   1.083       .  S
C1395      C1396   1.404       .  A
C1395      H1408   1.083       .  S
C1396      C1397   1.407       .  A
C1396      C1399   1.485       .  S
C1397      C1398   1.396       .  A
C1397      H1409   1.081       .  S
C1398      H1410   1.083       .  S
C1399      C1400   1.348       .  D
C1399      H1411   1.085       .  S
C1400      C1401   1.485       .  S
C1400      H1412   1.084       .  S
C1401      C1402   1.404       .  A
C1401      C1406   1.406       .  A
C1402      C1403   1.400       .  A
C1402      H1413   1.083       .  S
C1403      C1404   1.405       .  A
C1403      H1414   1.083       .  S
C1404      C1405   1.405       .  A
C1405      C1406   1.394       .  A
C1405      H1415   1.083       .  S
C1406      H1416   1.081       .  S
C1417      C1418   1.405       .  A
C1417      C1422   1.406       .  A
C1418      C1419   1.398       .  A
C1418      H1431   1.083       .  S
C1419      C1420   1.408       .  A
C1419      H1432   1.081       .  S
C1420      C1421   1.402       .  A
C1420      C1423   1.485       .  S
C1421      C1422   1.397       .  A
C1421      H1433   1.084       .  S
C1422      H1434   1.083       .  S
C1423      C1424   1.346       .  D
C1423      H1435   1.085       .  S
C1424      C1425   1.485       .  S
C1424      H1436   1.086       .  S
C1425      C1426   1.403       .  A
C1425      C1430   1.408       .  A
C1426      C1427   1.397       .  A
C1426      H1437   1.083       .  S
C1427      C1428   1.405       .  A
C1427      H1438   1.083       .  S
C1428      C1429   1.405       .  A
C1429      C1430   1.398       .  A
C1429      H1439   1.083       .  S
C1430      H1440   1.081       .  S
C1441      C1442   1.405       .  A
C1441      C1446   1.407       .  A
C1442      C1443   1.397       .  A
C1442      H1455   1.083       .  S
C1443      C1444   1.404       .  A
C1443      H1456   1.083       .  S
C1444      C1445   1.410       .  A
C1444      C1447   1.491       .  S
C1445      C1446   1.403       .  A
C1445      H1457   1.081       .  S
C1446      H1458   1.083       .  S
C1447      C1448   1.349   1_554  D
C1447      H1459   1.085       .  S
C1448      C1449   1.491       .  S
C1448      H1460   1.085       .  S
C1449      C1450   1.405       .  A
C1449      C1454   1.408       .  A
C1450      C1451   1.401       .  A
C1450      H1461   1.083       .  S
C1451      C1452   1.406       .  A
C1451      H1462   1.083       .  S
C1452      C1453   1.406       .  A
C1453      C1454   1.398       .  A
C1453      H1463   1.083       .  S
C1454      H1464   1.081       .  S
C1465      C1466   1.406       .  A
C1465      C1470   1.405       .  A
C1466      C1467   1.396       .  A
C1466      H1479   1.083       .  S
C1467      C1468   1.403       .  A
C1467      H1480   1.084       .  S
C1468      C1469   1.409       .  A
C1468      C1471   1.487       .  S
C1469      C1470   1.399       .  A
C1469      H1481   1.081       .  S
C1470      H1482   1.083       .  S
C1471      C1472   1.347       .  D
C1471      H1483   1.084       .  S
C1472      C1473   1.489       .  S
C1472      H1484   1.086       .  S
C1473      C1474   1.404       .  A
C1473      C1478   1.410       .  A
C1474      C1475   1.398       .  A
C1474      H1485   1.084       .  S
C1475      C1476   1.405       .  A
C1475      H1486   1.082       .  S
C1476      C1477   1.404       .  A
C1477      C1478   1.397       .  A
C1477      H1487   1.084       .  S
C1478      H1488   1.079       .  S
