geometry optimzed in LAMMPS
_audit_creation_date              2020-12-01 
_audit_creation_method            'lammps2cif' 
_symmetry_space_group_name_H-M    'P1' 
_symmetry_Int_Tables_number       1 
_symmetry_cell_setting            triclinic 
loop_ 
_symmetry_equiv_pos_as_xyz 
  x,y,z 
_cell_length_a                    23.68345931 
_cell_length_b                    23.51967154875667 
_cell_length_c                    24.69481831226877 
_cell_angle_alpha                 91.87617935931664 
_cell_angle_beta                  88.44430876071104 
_cell_angle_gamma                 89.1090963194792 
loop_ 
_atom_site_label 
_atom_site_type_symbol 
_atom_site_fract_x 
_atom_site_fract_y 
_atom_site_fract_z 
_atom_site_charge 
C1          C  0.21236550  0.21161795  0.21908308     0.30700
C2          C  0.25704880  0.29144883  0.28639069     0.30700
C3          C  0.26691733  0.24022745  0.19797827    -0.05500
C4          C  0.17282497  0.26585853  0.23125953    -0.06300
C5          C  0.22799291  0.19095588  0.27572802    -0.06200
C6          C  0.29228253  0.27974607  0.23208580    -0.05500
C7          C  0.19763946  0.30547920  0.26542232    -0.06300
C8          C  0.25173306  0.23088802  0.30953956    -0.06200
C9          C  0.34292674  0.29391264  0.20403495    -0.31600
N10         N  0.34592417  0.26618091  0.15396804     0.14900
C11         C  0.29864913  0.23518669  0.15029026    -0.31600
H12         H  0.28874827  0.20931178  0.11495624     0.16900
C13         C  0.16448145  0.35465980  0.26862581    -0.30500
N14         N  0.11826464  0.34848098  0.23819719     0.13700
C15         C  0.12262023  0.29404478  0.21491209    -0.30500
C16         C  0.26486269  0.20316049  0.35705252    -0.30800
N17         N  0.24764097  0.14769083  0.35414785     0.14200
H18         H  0.28586642  0.22251254  0.39119968     0.16800
C19         C  0.22503077  0.14043729  0.30392100    -0.30800
H20         H  0.20690585  0.10129719  0.28873035     0.16800
H21         H  0.09292286  0.27686758  0.18641782     0.16800
H22         H  0.37547014  0.32149267  0.21907386     0.16900
H23         H  0.17422277  0.39336739  0.29115627     0.16800
N24         N  0.97112525  0.41644949  0.24147884    -0.35900
N25         N  0.88555928  0.50964886  0.25451709    -0.56500
N26         N  0.97656786  0.59416042  0.23691023    -0.35900
N27         N  0.06184276  0.50082002  0.23462207    -0.56500
C28         C  0.92485233  0.38984375  0.26193894     0.27700
C29         C  0.01742994  0.38293339  0.25004856     0.27700
C30         C  0.93142259  0.62758382  0.25416551     0.27700
C31         C  0.02479973  0.62431574  0.24476043     0.27700
C32         C  0.85185910  0.46409273  0.24582720     0.36300
C33         C  0.85490357  0.55655958  0.24220562     0.36300
C34         C  0.09201188  0.45148577  0.22280954     0.36300
C35         C  0.09551660  0.54576193  0.22208134     0.36300
C36         C  0.94248440  0.33970299  0.28475057    -0.21200
C37         C  0.00036699  0.33502849  0.27678310    -0.21200
C38         C  0.95162000  0.67913771  0.27373607    -0.21200
C39         C  0.00980255  0.67721085  0.26760170    -0.21200
C40         C  0.80023167  0.48201701  0.22714059    -0.22300
C41         C  0.80228344  0.54027468  0.22442827    -0.22300
C42         C  0.14476283  0.46550469  0.20214652    -0.22300
C43         C  0.14690424  0.52429644  0.20151622    -0.22300
C44         C  0.86680466  0.40674127  0.25600140    -0.17600
C45         C  0.07465385  0.39409565  0.23408717    -0.17600
C46         C  0.08196409  0.60580340  0.23173091    -0.17600
C47         C  0.87244753  0.61392933  0.25018243    -0.17600
H48         H  0.91626130  0.30947713  0.30516070     0.15300
H49         H  0.02690152  0.30051927  0.28988868     0.15300
H50         H  0.92720385  0.71449411  0.29171060     0.15300
H51         H  0.03775616  0.71076091  0.28018268     0.15300
H52         H  0.76505044  0.45595340  0.21550416     0.13600
H53         H  0.76886131  0.56720253  0.20999281     0.13600
H54         H  0.17853279  0.43632567  0.18894263     0.13600
H55         H  0.18254863  0.54841402  0.18727629     0.13600
H56         H  0.97044871  0.45259513  0.21822524     0.26800
H57         H  0.97411079  0.55470412  0.21681045     0.26800
C58         C  0.76206084  0.80304331  0.22202976     0.30700
C59         C  0.68679713  0.73683719  0.27274141     0.30700
C60         C  0.70861567  0.79046238  0.18961650    -0.05500
C61         C  0.78453702  0.74275305  0.23631663    -0.06300
C62         C  0.73982721  0.82593390  0.27923681    -0.06200
C63         C  0.67142053  0.75655265  0.21608604    -0.05500
C64         C  0.74625696  0.70879474  0.26284803    -0.06300
C65         C  0.70064594  0.79218031  0.30496609    -0.06200
C66         C  0.62868694  0.74334835  0.18118195    -0.31600
N67         N  0.63665624  0.76972223  0.13382896     0.14900
C68         C  0.68641428  0.79858398  0.13805114    -0.31600
H69         H  0.70532383  0.82313936  0.10622246     0.16900
C70         C  0.77514873  0.65846618  0.27385837    -0.30500
N71         N  0.82927065  0.65983448  0.25269057     0.13700
C72         C  0.83489546  0.71159116  0.23035399    -0.30500
C73         C  0.69314287  0.81392621  0.35825577    -0.30800
N74         N  0.72550846  0.86086708  0.36501075     0.14200
H75         H  0.66680503  0.79646447  0.38986975     0.16800
C76         C  0.75610715  0.86618241  0.31839175    -0.30800
H77         H  0.78945996  0.89667805  0.31544928     0.16800
H78         H  0.87318020  0.72493808  0.21027778     0.16800
H79         H  0.59359230  0.71582794  0.18950644     0.16900
H80         H  0.75769443  0.62334299  0.29565027     0.16800
N81         N  0.25351408  0.99932155  0.41178213    -0.35900
N82         N  0.25959041  0.08976638  0.49536305    -0.56500
N83         N  0.26108112  0.00082893  0.57852539    -0.35900
N84         N  0.26549296  0.91064968  0.49515896    -0.56500
C85         C  0.26419591  0.04584674  0.38137852     0.27700
C86         C  0.26856057  0.95154127  0.38146976     0.27700
C87         C  0.27439597  0.04823886  0.60790233     0.27700
C88         C  0.27505723  0.95517894  0.60816120     0.27700
C89         C  0.24396016  0.12145420  0.45283170     0.36300
C90         C  0.24881777  0.12179988  0.54153972     0.36300
C91         C  0.25239833  0.87776493  0.45110759     0.36300
C92         C  0.25497135  0.87930594  0.53966574     0.36300
C93         C  0.28739498  0.02706827  0.33167651    -0.21200
C94         C  0.29009052  0.96823777  0.33172393    -0.21200
C95         C  0.29793937  0.03239761  0.65614681    -0.21200
C96         C  0.29817434  0.97384351  0.65636129    -0.21200
C97         C  0.22240358  0.17353371  0.47265375    -0.22300
C98         C  0.22608484  0.17393354  0.52841617    -0.22300
C99         C  0.23308019  0.82566362  0.46806811    -0.22300
C100        C  0.23510739  0.82654709  0.52380911    -0.22300
C101        C  0.25160669  0.10456864  0.39657412    -0.17600
C102        C  0.25988466  0.89323682  0.39585273    -0.17600
C103        C  0.26442154  0.89725307  0.59435566    -0.17600
C104        C  0.26083533  0.10536595  0.59526841    -0.17600
H105        H  0.30163122  0.05293907  0.29871736     0.15300
H106        H  0.30638639  0.94087378  0.29865662     0.15300
H107        H  0.31276772  0.06019001  0.68835934     0.15300
H108        H  0.31341778  0.94800000  0.68853174     0.15300
H109        H  0.20489145  0.20765309  0.44976719     0.13600
H110        H  0.21278911  0.20842500  0.55618881     0.13600
H111        H  0.21791547  0.79070811  0.44325878     0.13600
H112        H  0.22234650  0.79252812  0.54969537     0.13600
H113        H  0.23167750  0.99972170  0.44902123     0.26800
H114        H  0.23766053  0.00001103  0.54340164     0.26800
N115        N  0.73200641  0.00753180  0.42661796    -0.35900
N116        N  0.73274436  0.91852383  0.50941946    -0.56500
N117        N  0.75306137  0.00779709  0.59231491    -0.35900
N118        N  0.74163801  0.09726786  0.50930879    -0.56500
C119        C  0.71505757  0.96095210  0.39772965     0.27700
C120        C  0.72044631  0.05407975  0.39709739     0.27700
C121        C  0.73944487  0.96237091  0.62304606     0.27700
C122        C  0.74329265  0.05622634  0.62330378     0.27700
C123        C  0.73887918  0.88574942  0.46309523     0.36300
C124        C  0.74946545  0.88608980  0.55096679     0.36300
C125        C  0.74804387  0.12916453  0.46437819     0.36300
C126        C  0.75842446  0.12942032  0.55263639     0.36300
C127        C  0.69183944  0.97836036  0.34989883    -0.21200
C128        C  0.69537251  0.03675037  0.34945054    -0.21200
C129        C  0.71990513  0.98255717  0.67358166    -0.21200
C130        C  0.72231818  0.04115270  0.67375601    -0.21200
C131        C  0.75976288  0.83255537  0.47514328    -0.22300
C132        C  0.76707824  0.83292200  0.53038694    -0.22300
C133        C  0.76884488  0.18183318  0.47932254    -0.22300
C134        C  0.77584133  0.18187448  0.53471920    -0.22300
C135        C  0.72516824  0.90279319  0.41009866    -0.17600
C136        C  0.73453338  0.11158268  0.41020041    -0.17600
C137        C  0.75455441  0.11362114  0.60838256    -0.17600
C138        C  0.74591304  0.90319229  0.60724530    -0.17600
H139        H  0.67474710  0.95163278  0.31803082     0.15300
H140        H  0.68118807  0.06338184  0.31742049     0.15300
H141        H  0.70413254  0.95789980  0.70679401     0.15300
H142        H  0.70871097  0.06937834  0.70719039     0.15300
H143        H  0.76971235  0.79741707  0.44693549     0.13600
H144        H  0.78442041  0.79804246  0.55241587     0.13600
H145        H  0.77868613  0.21642177  0.45299862     0.13600
H146        H  0.79234222  0.21672364  0.55883416     0.13600
H147        H  0.75609589  0.00673611  0.46115257     0.26800
H148        H  0.77281183  0.00577131  0.55409562     0.26800
C149        C  0.30588079  0.72530649  0.71494347     0.30700
C150        C  0.22258013  0.78552381  0.76929531     0.30700
C151        C  0.28569348  0.77991422  0.68681846    -0.05500
C152        C  0.24954818  0.69225837  0.72251124    -0.06300
C153        C  0.31864163  0.74711567  0.77324299    -0.06200
C154        C  0.24454994  0.81211502  0.71569473    -0.05500
C155        C  0.20899735  0.72378673  0.75131461    -0.06300
C156        C  0.27739013  0.77800713  0.80188077    -0.06200
C157        C  0.23439219  0.86016098  0.68550297    -0.31600
N158        N  0.26402862  0.85566304  0.63730842     0.14900
C159        C  0.29429039  0.80594203  0.63739784    -0.31600
H160        H  0.32065289  0.78987517  0.60369330     0.16900
C161        C  0.16172319  0.69094633  0.75738292    -0.30500
N162        N  0.16836229  0.64120545  0.72986425     0.13700
C163        C  0.22296060  0.64039950  0.70876146    -0.30500
C164        C  0.30012255  0.79031093  0.85318072    -0.30800
N165        N  0.35309060  0.76616155  0.85546517     0.14200
H166        H  0.27987972  0.81501803  0.88615910     0.16800
C167        C  0.36371661  0.73992976  0.80678087    -0.30800
H168        H  0.40231910  0.71652808  0.79678062     0.16800
H169        H  0.24190595  0.60527219  0.68501105     0.16800
H170        H  0.20691580  0.89580430  0.69746915     0.16900
H171        H  0.12430421  0.70154476  0.78123322     0.16800
N172        N  0.10371656  0.49659237  0.73669328    -0.35900
N173        N  0.01944765  0.58845986  0.74513184    -0.56500
N174        N  0.92822413  0.50389679  0.75533734    -0.35900
N175        N  0.01224416  0.41227793  0.75750729    -0.56500
C176        C  0.13693647  0.54259978  0.74387538     0.27700
C177        C  0.13238333  0.45134164  0.75536333     0.27700
C178        C  0.89885422  0.55329626  0.76744014     0.27700
C179        C  0.89476916  0.45935970  0.76881553     0.27700
C180        C  0.06524664  0.61682922  0.72570086     0.36300
C181        C  0.97314040  0.62307536  0.74041959     0.36300
C182        C  0.05797642  0.37828434  0.74431312     0.36300
C183        C  0.96515433  0.38044523  0.75024903     0.36300
C184        C  0.18652973  0.52664110  0.76794743    -0.21200
C185        C  0.18341926  0.46922048  0.77573628    -0.21200
C186        C  0.84624909  0.53968573  0.78899530    -0.21200
C187        C  0.84367972  0.48104476  0.78982104    -0.21200
C188        C  0.04729551  0.66931039  0.70795215    -0.22300
C189        C  0.98964775  0.67348464  0.71781605    -0.22300
C190        C  0.03949072  0.32495915  0.72783692    -0.22300
C191        C  0.98119404  0.32617862  0.73192377    -0.22300
C192        C  0.12352835  0.59867555  0.72944277    -0.17600
C193        C  0.11602437  0.39379958  0.75032321    -0.17600
C194        C  0.90802027  0.39966272  0.76067565    -0.17600
C195        C  0.91606754  0.61029458  0.75617596    -0.17600
H196        H  0.22087238  0.55363175  0.78001451     0.15300
H197        H  0.21527049  0.44375429  0.79467701     0.15300
H198        H  0.81283047  0.56901405  0.80277368     0.15300
H199        H  0.80810660  0.45725041  0.80475442     0.15300
H200        H  0.07316576  0.70180398  0.69033057     0.13600
H201        H  0.96287611  0.70942856  0.70870610     0.13600
H202        H  0.06516781  0.28907507  0.71318352     0.13600
H203        H  0.95386846  0.29133289  0.72134552     0.13600
H204        H  0.06619414  0.49516821  0.71561049     0.26800
H205        H  0.96662584  0.50068910  0.73402785     0.26800
C206        C  0.77805786  0.22444165  0.79223684     0.30700
C207        C  0.71719393  0.29554743  0.73117277     0.30700
C208        C  0.71848392  0.24103198  0.81397412    -0.05500
C209        C  0.80619824  0.28327953  0.78234755    -0.06300
C210        C  0.76840145  0.20180249  0.73366270    -0.06200
C211        C  0.68729333  0.27773897  0.78468401    -0.05500
C212        C  0.77523468  0.31957747  0.74992323    -0.06300
C213        C  0.73700428  0.23766672  0.70294544    -0.06200
C214        C  0.63586634  0.28617602  0.81419623    -0.31600
N215        N  0.63667323  0.25517286  0.86042187     0.14900
C216        C  0.68647636  0.22650004  0.85901977    -0.31600
H217        H  0.69855783  0.19681895  0.88929587     0.16900
C218        C  0.81149700  0.36387246  0.73707711    -0.30500
N219        N  0.86158900  0.35829463  0.76252589     0.13700
C220        C  0.85917427  0.30808553  0.78908254    -0.30500
C221        C  0.73121482  0.20980556  0.65259417    -0.30800
N222        N  0.75767009  0.15802116  0.65163359     0.14200
H223        H  0.70886113  0.22552902  0.61875382     0.16800
C224        C  0.78239944  0.15384640  0.70068850    -0.30800
H225        H  0.80806815  0.11786173  0.71187161     0.16800
H226        H  0.89392781  0.28996488  0.81061801     0.16800
H227        H  0.60100461  0.31325140  0.80302114     0.16900
H228        H  0.80446137  0.39650705  0.70852565     0.16800
N229        N  0.49352010  0.74797136  0.07707057    -0.35900
N230        N  0.40718978  0.75304582  0.99732650    -0.56500
N231        N  0.49713936  0.74979215  0.91080867    -0.35900
N232        N  0.58310664  0.75579894  0.99087326    -0.56500
C233        C  0.44577696  0.75374120  0.10907077     0.27700
C234        C  0.53696255  0.77067135  0.10503095     0.27700
C235        C  0.45220295  0.77245400  0.88533535     0.27700
C236        C  0.54434856  0.75837008  0.87940152     0.27700
C237        C  0.37509172  0.73399763  0.03932116     0.36300
C238        C  0.37557205  0.74910228  0.95228277     0.36300
C239        C  0.61491985  0.75213401  0.03575443     0.36300
C240        C  0.61623272  0.73830773  0.94726977     0.36300
C241        C  0.45881273  0.78049317  0.15771586    -0.21200
C242        C  0.51572888  0.79217435  0.15480354    -0.21200
C243        C  0.47182446  0.79691946  0.83805336    -0.21200
C244        C  0.52945867  0.78718787  0.83390698    -0.21200
C245        C  0.32300813  0.71752047  0.02059111    -0.22300
C246        C  0.32316483  0.72740190  0.96575661    -0.22300
C247        C  0.66855888  0.73217742  0.02067194    -0.22300
C248        C  0.66917729  0.72272372  0.96508526    -0.22300
C249        C  0.39041199  0.73666974  0.09492251    -0.17600
C250        C  0.59602748  0.76654178  0.09004008    -0.17600
C251        C  0.60073361  0.74202461  0.89154428    -0.17600
C252        C  0.39352260  0.76521973  0.89940011    -0.17600
H253        H  0.43004821  0.79186766  0.19127659     0.15300
H254        H  0.53898197  0.81347652  0.18644350     0.15300
H255        H  0.44690470  0.81850189  0.80865187     0.15300
H256        H  0.55734472  0.80085591  0.80159497     0.15300
H257        H  0.28820363  0.70065022  0.04401300     0.13600
H258        H  0.28880070  0.71869272  0.93890046     0.13600
H259        H  0.70338118  0.72412287  0.04698940     0.13600
H260        H  0.70493473  0.70672820  0.94065193     0.13600
H261        H  0.49703925  0.72460370  0.04057103     0.26800
H262        H  0.49518626  0.72450252  0.94463601     0.26800
N263        N  0.49197388  0.24447399  0.92535650    -0.35900
N264        N  0.40509919  0.24551611  0.01247941    -0.56500
N265        N  0.49366700  0.24906955  0.09112569    -0.35900
N266        N  0.58076056  0.23673029  0.00317339    -0.56500
C267        C  0.44704604  0.22264193  0.89909398     0.27700
C268        C  0.53852262  0.23554990  0.89254078     0.27700
C269        C  0.44642636  0.24517973  0.12364691     0.27700
C270        C  0.53777158  0.22505314  0.11695340     0.27700
C271        C  0.37213241  0.24930916  0.96840812     0.36300
C272        C  0.37466960  0.26754760  0.05593358     0.36300
C273        C  0.61202215  0.25400317  0.95982898     0.36300
C274        C  0.61409018  0.24009246  0.04715525     0.36300
C275        C  0.46619582  0.19819055  0.84978758    -0.21200
C276        C  0.52348217  0.20744110  0.84522457    -0.21200
C277        C  0.46047329  0.21826821  0.17048835    -0.21200
C278        C  0.51745284  0.20474063  0.16591860    -0.21200
C279        C  0.32049217  0.27387359  0.98381909    -0.22300
C280        C  0.32230402  0.28601758  0.03888174    -0.22300
C281        C  0.66542287  0.26866281  0.97679362    -0.22300
C282        C  0.66693158  0.25918624  0.03162192    -0.22300
C283        C  0.38864678  0.23122323  0.91453359    -0.17600
C284        C  0.59440383  0.25158338  0.90465785    -0.17600
C285        C  0.59675433  0.22747978  0.10122644    -0.17600
C286        C  0.39067904  0.26401110  0.11135198    -0.17600
H287        H  0.44116929  0.17717886  0.81930422     0.15300
H288        H  0.55108481  0.19401512  0.81139554     0.15300
H289        H  0.43239023  0.20822706  0.20400680     0.15300
H290        H  0.54152113  0.18332937  0.19606332     0.15300
H291        H  0.28547695  0.28295148  0.95804511     0.13600
H292        H  0.28833503  0.30520570  0.06371998     0.13600
H293        H  0.69999012  0.28457990  0.95242401     0.13600
H294        H  0.70243567  0.26738207  0.05721396     0.13600
H295        H  0.49050492  0.26988011  0.96070619     0.26800
H296        H  0.49640687  0.27213877  0.05590841     0.26800
C297        C  0.73141056  0.71526907  0.71375033     0.30700
C298        C  0.78073953  0.79122470  0.78189040     0.30700
C299        C  0.69747059  0.72702895  0.76906461    -0.05500
C300        C  0.79098287  0.69874968  0.73289277    -0.06300
C301        C  0.73862931  0.77639712  0.69239974    -0.06200
C302        C  0.72471949  0.76512687  0.80354697    -0.05500
C303        C  0.81724271  0.73602646  0.76789568    -0.06300
C304        C  0.76515882  0.81412358  0.72640778    -0.06200
C305        C  0.69317788  0.77064429  0.85161622    -0.31600
N306        N  0.64512356  0.74070586  0.84828978     0.14900
C307        C  0.64665626  0.71421428  0.79758948    -0.31600
H308        H  0.61289634  0.68835583  0.78235705     0.16900
C309        C  0.86733588  0.70691790  0.78209479    -0.30500
N310        N  0.87196554  0.65513406  0.75462662     0.13700
C311        C  0.82503329  0.65045527  0.72492706    -0.30500
C312        C  0.77136694  0.86459234  0.69894495    -0.30800
N313        N  0.74741831  0.85968919  0.64918364     0.14200
H314        H  0.79288557  0.90184441  0.71412645     0.16800
C315        C  0.72625456  0.80581498  0.64584819    -0.30800
H316        H  0.70341718  0.78859461  0.61186304     0.16800
H317        H  0.81551371  0.61332801  0.69996493     0.16800
H318        H  0.70390460  0.79532934  0.88729411     0.16900
H319        H  0.89666978  0.72069747  0.81230198     0.16800
C320        C  0.68933671  0.27674602  0.28083168     0.30700
C321        C  0.77196318  0.21408756  0.22866017     0.30700
C322        C  0.67519344  0.25035790  0.22465757    -0.05500
C323        C  0.74471128  0.30974082  0.26897193    -0.06300
C324        C  0.71099556  0.22492399  0.31266321    -0.06200
C325        C  0.71589468  0.21795258  0.19689254    -0.05500
C326        C  0.78516875  0.27716215  0.24113971    -0.06300
C327        C  0.75214616  0.19175348  0.28501569    -0.06200
C328        C  0.69145949  0.20276338  0.14673883    -0.31600
N329        N  0.63833655  0.22693269  0.14440749     0.14900
C330        C  0.62943038  0.25601142  0.19179976    -0.31600
H331        H  0.59177566  0.28116240  0.20107101     0.16900
C332        C  0.83154640  0.31066713  0.23156087    -0.30500
N333        N  0.82336603  0.36271560  0.25560167     0.13700
C334        C  0.76976926  0.36297632  0.27863194    -0.30500
C335        C  0.76444064  0.14639470  0.31812564    -0.30800
N336        N  0.73505211  0.15264086  0.36641465     0.14200
H337        H  0.79295589  0.11107465  0.30770494     0.16800
C338        C  0.70293397  0.20118054  0.36359749    -0.30800
H339        H  0.67512339  0.21764649  0.39606278     0.16800
H340        H  0.75073137  0.39855249  0.30168255     0.16800
H341        H  0.71083544  0.17656874  0.11434691     0.16900
H342        H  0.86962211  0.29760486  0.20905023     0.16800
C343        C  0.29988337  0.26893046  0.73343589     0.30700
C344        C  0.22003050  0.20553100  0.78106119     0.30700
C345        C  0.31438196  0.24502714  0.78881775    -0.05500
C346        C  0.24259221  0.30050770  0.74593745    -0.06300
C347        C  0.28159041  0.21718140  0.69906170    -0.06200
C348        C  0.27461156  0.21252459  0.81476456    -0.05500
C349        C  0.20289546  0.26815128  0.77260101    -0.06300
C350        C  0.24176003  0.18459373  0.72401683    -0.06200
C351        C  0.29593776  0.20461923  0.86703779    -0.31600
N352        N  0.34753738  0.23029247  0.87112274     0.14900
C353        C  0.35732918  0.25603627  0.82381650    -0.31600
H354        H  0.39358506  0.28218948  0.81571073     0.16900
C355        C  0.15418895  0.30071970  0.78027848    -0.30500
N356        N  0.15999315  0.34986444  0.75380373     0.13700
C357        C  0.21413182  0.35004513  0.73240194    -0.30500
C358        C  0.22777879  0.14163476  0.68720764    -0.30800
N359        N  0.25788437  0.14739393  0.64005823     0.14200
H360        H  0.19810996  0.10797588  0.69440898     0.16800
C361        C  0.29001071  0.19457608  0.64643460    -0.30800
H362        H  0.31805399  0.21066629  0.61541942     0.16800
H363        H  0.23125126  0.38308125  0.70759317     0.16800
H364        H  0.27500836  0.18313011  0.89980621     0.16900
H365        H  0.11625964  0.28860197  0.80213218     0.16800
C366        C  0.27144784  0.70584528  0.27445865     0.30700
C367        C  0.21660210  0.78472052  0.21770843     0.30700
C368        C  0.29982911  0.71829766  0.21807937    -0.05500
C369        C  0.21027453  0.68931334  0.25791885    -0.06300
C370        C  0.26324824  0.76558575  0.30281274    -0.06200
C371        C  0.27006912  0.75755099  0.18947733    -0.05500
C372        C  0.18074647  0.72973374  0.22881713    -0.06300
C373        C  0.23457946  0.80422252  0.27415764    -0.06200
C374        C  0.29789024  0.76406296  0.13993953    -0.31600
N375        N  0.34629044  0.73260308  0.13758313     0.14900
C376        C  0.34727612  0.70303564  0.18456204    -0.31600
H377        H  0.38034637  0.67289264  0.19366796     0.16900
C378        C  0.12989080  0.70283141  0.21461251    -0.30500
N379        N  0.12816870  0.64819285  0.23388629     0.13700
C380        C  0.17799851  0.64024752  0.25915502    -0.30500
C381        C  0.22988877  0.85464544  0.30507991    -0.30800
N382        N  0.25672815  0.84886657  0.35252383     0.14200
H383        H  0.20804558  0.89299563  0.29362418     0.16800
C384        C  0.27754618  0.79403019  0.35135730    -0.30800
H385        H  0.30171353  0.77593622  0.38329715     0.16800
H386        H  0.19043068  0.60071713  0.27693664     0.16800
H387        H  0.28508798  0.79231806  0.10863337     0.16900
H388        H  0.09717566  0.72155542  0.19081152     0.16800
C389        C  0.16734984  0.89705993  0.07714522     0.43100
N390        N  0.09618078  0.87853139  0.02897793     0.02000
C391        C  0.00419763  0.07851207  0.85174584    -0.05800
H392        H  0.09664948  0.16005554  0.02719139     0.07500
C393        C  0.96550016  0.08914451  0.13940216    -0.06200
Co394      Co  0.08623382  0.96149935  0.94173008     0.74200
N395        N  0.08956562  0.08276699  0.98067339    -0.25400
Co396      Co  0.00357747  0.07618983  0.97582386     0.74100
C397        C  0.97866044  0.14868591  0.13112543     0.43200
N398        N  0.97650525  0.94668914  0.11953421     0.01600
N399        N  0.99145873  0.10061017  0.05640472     0.01800
N400        N  0.05641533  0.00043393  0.83168020    -0.46200
H401        H  0.20777988  0.95061675  0.01228516     0.07500
N402        N  0.12179354  0.03695072  0.97398511     0.02000
N403        N  0.92010375  0.06521078  0.97098708     0.01800
C404        C  0.83675508  0.07337254  0.94349826     0.43400
N405        N  0.00371363  0.89941195  0.10489290    -0.24800
C406        C  0.03440990  0.87682439  0.86271786    -0.05800
N407        N  0.12131057  0.86490563  0.07336472    -0.45900
N408        N  0.89065390  0.08448603  0.93155223    -0.46200
C409        C  0.01577607  0.81814128  0.86445291     0.43200
N410        N  0.04504311  0.00565690  0.88399573     0.02000
N411        N  0.92411821  0.87336851  0.02275095    -0.24900
N412        N  0.12554079  0.91404417  0.99990123    -0.25300
N413        N  0.89418508  0.91993017  0.03438744     0.01700
H414        H  0.90956881  0.80025692  0.97186689     0.07600
H415        H  0.79933915  0.02868149  0.01773680     0.07600
N416        N  0.01395880  0.05062371  0.89674085    -0.25400
N417        N  0.97047577  0.06448821  0.09064402    -0.25000
N418        N  0.01958345  0.85472430  0.94473212     0.02000
C419        C  0.16687945  0.09308284  0.02839113     0.43400
C420        C  0.00946177  0.86773133  0.14827003    -0.06300
N421        N  0.88972785  0.03942602  0.00772339    -0.25000
H422        H  0.94099632  0.07168837  0.17239455     0.07600
N423        N  0.16853800  0.04182055  0.00200071    -0.46200
H424        H  0.02274643  0.82344785  0.14614175     0.07600
C425        C  0.84405639  0.87210880  0.97856729     0.43300
C426        C  0.17404392  0.92361050  0.02524329    -0.05800
Co427      Co  0.01101738  0.87443951  0.02541728     0.73800
N428        N  0.96389358  0.94890844  0.17152950    -0.45900
C429        C  0.04088917  0.04975586  0.81018850     0.43500
N430        N  0.00210971  0.80959152  0.91711619    -0.45900
Co431      Co  0.93157773  0.99276215  0.06473631     0.73900
C432        C  0.83506863  0.04475831  0.99510550    -0.06300
C433        C  0.11683360  0.12221855  0.00909921    -0.05800
N434        N  0.04341599  0.89192888  0.91359995    -0.25400
N435        N  0.99649793  0.15204029  0.07878100    -0.46100
H436        H  0.98823791  0.12188781  0.85202937     0.07500
C437        C  0.89310802  0.83811193  0.99308420    -0.06200
Cl438      Cl  0.00844898  0.97640634  0.00216039    -0.49200
C439        C  0.97173714  0.89589780  0.18918434     0.43300
H440        H  0.05375635  0.89724730  0.82859604     0.07500
N441        N  0.84569445  0.92032674  0.00920977    -0.46000
C442        C  0.49129014  0.39545123  0.32008143     0.43100
N443        N  0.52431938  0.43624445  0.39151184     0.02000
C444        C  0.46017917  0.44261363  0.65355586    -0.05800
H445        H  0.29777714  0.51617145  0.49988551     0.07500
C446        C  0.42533820  0.66818743  0.48067430    -0.06200
Co447      Co  0.47801631  0.39741731  0.49263350     0.74200
N448        N  0.37598945  0.46979025  0.51244099    -0.25400
Co449      Co  0.42867842  0.51765467  0.56147676     0.74100
C450        C  0.36695975  0.65217184  0.47241066     0.43200
N451        N  0.53585173  0.59590698  0.42312354     0.01600
N452        N  0.40776253  0.59043587  0.52081764     0.01800
N453        N  0.49249690  0.36314452  0.61056886    -0.46200
H454        H  0.43025946  0.34292473  0.37240730     0.07500
N455        N  0.39595340  0.42147725  0.49105556     0.02000
N456        N  0.48608285  0.56192342  0.60796786     0.01800
C457        C  0.51117059  0.61037559  0.67819757     0.43400
N458        N  0.55927198  0.55083082  0.39875103    -0.24800
C459        C  0.57807002  0.32717390  0.51620937    -0.05800
N460        N  0.52319098  0.43815503  0.33871513    -0.45900
N461        N  0.48478912  0.56340361  0.66091537    -0.46200
C462        C  0.63570862  0.34101793  0.52943338     0.43200
N463        N  0.47354328  0.40028536  0.57610372     0.02000
N464        N  0.63333617  0.52767494  0.48901663    -0.24900
N465        N  0.48592568  0.40229274  0.41070694    -0.25300
N466        N  0.61280771  0.57674781  0.50833969     0.01700
H467        H  0.71154599  0.48228684  0.50408979     0.07600
H468        H  0.56939547  0.66527280  0.62508189     0.07600
N469        N  0.45349878  0.44668457  0.60080753    -0.25400
N470        N  0.44777291  0.62448762  0.50525756    -0.25000
N471        N  0.60080908  0.40582748  0.47998704     0.02000
C472        C  0.31530554  0.42931972  0.45661279     0.43400
C473        C  0.55255154  0.55432903  0.34587199    -0.06300
N474        N  0.52209346  0.59790107  0.58814819    -0.25000
H475        H  0.44972347  0.70118568  0.46212033     0.07600
N476        N  0.36095454  0.39570204  0.45886176    -0.46200
H477        H  0.57143348  0.52513113  0.31589137     0.07600
C478        C  0.69378629  0.57175083  0.54255432     0.43300
C479        C  0.46026893  0.37690924  0.36893845    -0.05800
Co480      Co  0.58214358  0.47948173  0.43893314     0.73800
N481        N  0.51294585  0.63062662  0.38881971    -0.45900
C482        C  0.48289160  0.38582327  0.66139480     0.43500
N483        N  0.64836810  0.38829097  0.50137309    -0.45900
Co484      Co  0.53029230  0.60054375  0.50584936     0.73900
C485        C  0.54313340  0.62839272  0.62950490    -0.06300
C486        C  0.32439689  0.47894227  0.49239425    -0.05800
N487        N  0.55927107  0.37221032  0.49189690    -0.25400
N488        N  0.35817016  0.60585186  0.50243147    -0.46100
H489        H  0.44365917  0.47331012  0.68325220     0.07500
C490        C  0.68487595  0.51983706  0.50966351    -0.06200
Cl491      Cl  0.50479651  0.49883105  0.49968266    -0.49200
C492        C  0.52202487  0.60754313  0.33830753     0.43300
H493        H  0.54945340  0.29749437  0.53400537     0.07500
N494        N  0.64769190  0.60453237  0.53901752    -0.46000
C495        C  0.20053961  0.83849690  0.19016189    -0.04800
C496        C  0.14577056  0.86213149  0.19481327    -0.32200
C497        C  0.13693648  0.91443667  0.17022658     0.37000
C498        C  0.17580988  0.92868005  0.12885603    -0.05100
C499        C  0.23122752  0.92356378  0.14376264    -0.32100
C500        C  0.24470608  0.87719837  0.17506522     0.36900
H501        H  0.11307048  0.84308183  0.21940328     0.17300
O502        O  0.08998599  0.94761315  0.18166743    -0.59600
H503        H  0.26401161  0.94829905  0.12478463     0.17300
O504        O  0.29884758  0.87176849  0.19351835    -0.59700
H505        H  0.32493310  0.87564159  0.16174544     0.44300
H506        H  0.09652299  0.96577913  0.21770256     0.44300
C507        C  0.30113277  0.66867478  0.31358801    -0.04800
C508        C  0.26786923  0.64558166  0.35576422    -0.32200
C509        C  0.28930870  0.63772442  0.40703583     0.37000
C510        C  0.34440589  0.65430051  0.41758512    -0.05100
C511        C  0.37901463  0.67226510  0.37464382    -0.32100
C512        C  0.35828809  0.67982439  0.32365763     0.36900
H513        H  0.22295104  0.64083125  0.35255650     0.17300
O514        O  0.25413707  0.62002222  0.44799428    -0.59600
H515        H  0.42171519  0.68526015  0.38047287     0.17300
O516        O  0.39217516  0.70718843  0.28734317    -0.59700
H517        H  0.38929033  0.74821685  0.29805410     0.44300
H518        H  0.24667459  0.57949541  0.43893726     0.44300
C519        C  0.35109976  0.29962092  0.71429216    -0.04800
C520        C  0.35946017  0.35410947  0.73749417    -0.32200
C521        C  0.41289855  0.37748973  0.73646779     0.37000
C522        C  0.45535898  0.35166370  0.70265959    -0.05100
C523        C  0.45142026  0.29391149  0.68998851    -0.32100
C524        C  0.39982998  0.26734067  0.69603288     0.36900
H525        H  0.32606782  0.37620638  0.76089398     0.17300
O526        O  0.42193901  0.42759597  0.76461512    -0.59600
H527        H  0.48647174  0.27089016  0.67009094     0.17300
O528        O  0.39882248  0.20920253  0.68905606    -0.59700
H529        H  0.41158813  0.20066612  0.65100971     0.44300
H530        H  0.43436024  0.41616832  0.80075896     0.44300
C531        C  0.17207490  0.16802346  0.79627538    -0.04800
C532        C  0.12104905  0.17567993  0.76833162    -0.32200
C533        C  0.07864183  0.13602268  0.76935341     0.37000
C534        C  0.08836493  0.08494042  0.79436749    -0.05100
C535        C  0.14172629  0.07373025  0.81644064    -0.32100
C536        C  0.18290540  0.11488407  0.81824953     0.36900
H537        H  0.11493573  0.21046455  0.74176682     0.17300
O538        O  0.02843896  0.14676934  0.74475582    -0.59600
H539        H  0.15138706  0.03369493  0.83485221     0.17300
O540        O  0.23514867  0.10060619  0.83675744    -0.59700
H541        H  0.22936960  0.09433582  0.87603086     0.44300
H542        H  0.00915402  0.17718195  0.76750028     0.44300
C543        C  0.93430575  0.18561757  0.15412221    -0.04800
C544        C  0.92767347  0.18394949  0.21022777    -0.32200
C545        C  0.87413671  0.18400661  0.23432605     0.37000
C546        C  0.82525742  0.18925949  0.20228960    -0.05100
C547        C  0.83347220  0.19741428  0.14640292    -0.32100
C548        C  0.88716448  0.19625890  0.12244283     0.36900
H549        H  0.96396420  0.17586163  0.23490562     0.17300
O550        O  0.87082322  0.18245851  0.28972517    -0.59600
H551        H  0.79896997  0.20851810  0.12111385     0.17300
O552        O  0.89254530  0.20060109  0.06728229    -0.59700
H553        H  0.90156986  0.24102776  0.06152438     0.44300
H554        H  0.87219500  0.22259091  0.30302655     0.44300
C555        C  0.52616610  0.35434746  0.28728687    -0.04800
C556        C  0.53370940  0.30054677  0.30863427    -0.32200
C557        C  0.58787865  0.27809038  0.31509748     0.37000
C558        C  0.63630754  0.30916888  0.29884356    -0.05100
C559        C  0.62688996  0.35985969  0.27103653    -0.32100
C560        C  0.57232409  0.37818267  0.25958204     0.36900
H561        H  0.49792354  0.27802317  0.32508625     0.17300
O562        O  0.59228032  0.22299069  0.33104341    -0.59600
H563        H  0.66145185  0.38123608  0.25124766     0.17300
O564        O  0.56429545  0.42529091  0.22889171    -0.59700
H565        H  0.58793286  0.45578734  0.24459142     0.44300
H566        H  0.57787784  0.22347163  0.36915635     0.44300
C567        C  0.71910729  0.67113115  0.66942944    -0.04800
C568        C  0.75474637  0.67349996  0.62240725    -0.32200
C569        C  0.76115639  0.62801840  0.58557021     0.37000
C570        C  0.72629791  0.58133508  0.59051791    -0.05100
C571        C  0.69655509  0.57437891  0.63996416    -0.32100
C572        C  0.69294257  0.61885056  0.67950962     0.36900
H573        H  0.78161783  0.70954439  0.61582084     0.17300
O574        O  0.79380071  0.63422423  0.53944319    -0.59600
H575        H  0.67027919  0.53748335  0.64493570     0.17300
O576        O  0.66552841  0.60994641  0.72792107    -0.59700
H577        H  0.62496178  0.60745246  0.71938387     0.44300
H578        H  0.82916528  0.61255183  0.54560952     0.44300
C579        C  0.80236460  0.83782168  0.81901802    -0.04800
C580        C  0.76386593  0.87277638  0.85012027    -0.32200
C581        C  0.77703369  0.88790659  0.90345354     0.37000
C582        C  0.83137928  0.87546902  0.92083101    -0.05100
C583        C  0.87394584  0.86266398  0.88127155    -0.32100
C584        C  0.85943558  0.84237249  0.82988025     0.36900
H585        H  0.72089187  0.87889082  0.83725718     0.17300
O586        O  0.73599958  0.90986107  0.93877736    -0.59600
H587        H  0.91749696  0.86556336  0.89139244     0.17300
O588        O  0.89952928  0.83089978  0.78959062    -0.59700
H589        H  0.92934868  0.80748053  0.80548982     0.44300
H590        H  0.71785444  0.87638661  0.95482632     0.44300
C591        C  0.79577087  0.11059492  0.92102259    -0.04800
C592        C  0.80803621  0.16833007  0.92885417    -0.32200
C593        C  0.81324577  0.20351542  0.88465034     0.37000
C594        C  0.79978730  0.18272112  0.83216001    -0.07300
C595        C  0.77888330  0.12659400  0.82742300    -0.32100
C596        C  0.77619210  0.09130120  0.87128443     0.36900
H597        H  0.82200014  0.18392222  0.96800285     0.17300
O598        O  0.82457589  0.25985355  0.89435685    -0.59600
H599        H  0.75966202  0.11059790  0.79114718     0.17300
O600        O  0.76030734  0.03579499  0.86370599    -0.59700
H601        H  0.71883595  0.03621134  0.87064336     0.44300
H602        H  0.86503452  0.26084543  0.90354288     0.44300
C603        C  0.67793432  0.32711051  0.69482655    -0.04800
C604        C  0.63469958  0.29383205  0.67382272    -0.32200
C605        C  0.62509296  0.29425306  0.61873796     0.37000
C606        C  0.64938151  0.33707157  0.58707064    -0.05100
C607        C  0.67851818  0.38118431  0.61347257    -0.32100
C608        C  0.69231770  0.37686392  0.66818448     0.36900
H609        H  0.61982349  0.25752897  0.69579770     0.17300
O610        O  0.60097837  0.24712297  0.59514534    -0.59600
H611        H  0.69029407  0.41883828  0.59203442     0.17300
O612        O  0.71093589  0.42334906  0.69739835    -0.59700
H613        H  0.73240989  0.44746499  0.67209199     0.44300
H614        H  0.56276373  0.24442231  0.61217184     0.44300
C615        C  0.16857986  0.80745712  0.79701977    -0.04800
C616        C  0.15920617  0.78709552  0.84964481    -0.32200
C617        C  0.10598023  0.77074508  0.86740719     0.37000
C618        C  0.05875834  0.78300653  0.83628860    -0.05100
C619        C  0.06732722  0.79706677  0.78214603    -0.32100
C620        C  0.12047132  0.81429752  0.76402967     0.36900
H621        H  0.19372710  0.77608068  0.87496453     0.17300
O622        O  0.09975577  0.74946572  0.91828017    -0.59600
H623        H  0.03123588  0.80519426  0.75724127     0.17300
O624        O  0.12549893  0.83025131  0.71137787    -0.59700
H625        H  0.10873837  0.86918885  0.71113708     0.44300
H626        H  0.08734252  0.70972138  0.91236034     0.44300
C627        C  0.35938804  0.69425015  0.69547943    -0.04800
C628        C  0.36913619  0.64244642  0.72109919    -0.32200
C629        C  0.42383658  0.62420035  0.73212964     0.37000
C630        C  0.47027882  0.64977765  0.70624900    -0.05100
C631        C  0.46204108  0.70320144  0.68454063    -0.32100
C632        C  0.40771939  0.72582364  0.67951333     0.36900
H633        H  0.33448887  0.62019632  0.73992356     0.17300
O634        O  0.43208789  0.57719488  0.76289898    -0.59600
H635        H  0.49750945  0.72618103  0.66807010     0.17300
O636        O  0.40336804  0.78091308  0.66370059    -0.59700
H637        H  0.41748936  0.78046090  0.62544720     0.44300
H638        H  0.40941523  0.54631554  0.74655906     0.44300
C639        C  0.63809601  0.70211495  0.29116237    -0.04800
C640        C  0.63431400  0.64794236  0.26521390    -0.32200
C641        C  0.58213591  0.62281396  0.25971561     0.37000
C642        C  0.53740051  0.64346979  0.29327793    -0.05100
C643        C  0.53606346  0.70138474  0.30665741    -0.32100
C644        C  0.58660676  0.73057344  0.30791686     0.36900
H645        H  0.66996913  0.62867231  0.24284697     0.17300
O646        O  0.57783856  0.57295388  0.22988764    -0.59600
H647        H  0.49858643  0.72121748  0.32546995     0.17300
O648        O  0.58414022  0.78779650  0.32052164    -0.59700
H649        H  0.57073447  0.79125539  0.35892255     0.44300
H650        H  0.56196800  0.58422420  0.19499841     0.44300
C651        C  0.80428272  0.83876128  0.19302742    -0.04800
C652        C  0.81800679  0.89129231  0.21603020    -0.32200
C653        C  0.87424924  0.90289923  0.22500904     0.37000
C654        C  0.91671552  0.86922746  0.19796722    -0.05100
C655        C  0.89991085  0.82493193  0.16172553    -0.32100
C656        C  0.84328944  0.81199585  0.15697541     0.36900
H657        H  0.78528306  0.91989776  0.23253884     0.17300
O658        O  0.88772898  0.94875444  0.25785945    -0.59600
H659        H  0.92966644  0.80091014  0.13570694     0.17300
O660        O  0.82774551  0.76761643  0.12343397    -0.59700
H661        H  0.81914928  0.78517569  0.08857651     0.44300
H662        H  0.87532302  0.98297688  0.23866428     0.44300
C663        C  0.26929194  0.33722782  0.32889911    -0.04800
C664        C  0.30731434  0.38108912  0.31925210    -0.32200
C665        C  0.31350673  0.42504044  0.35821707     0.37000
C666        C  0.28276732  0.42407099  0.40804879    -0.05100
C667        C  0.23862810  0.38651662  0.41354379    -0.32100
C668        C  0.23257552  0.34240769  0.37554580     0.36900
H669        H  0.33264656  0.38134861  0.28232270     0.17300
O670        O  0.35624107  0.46308716  0.35131689    -0.59600
H671        H  0.21435369  0.38567867  0.45139176     0.17300
O672        O  0.19108178  0.30348437  0.38497243    -0.59700
H673        H  0.15476987  0.32385169  0.37967058     0.44300
H674        H  0.33708300  0.49996827  0.34502621     0.44300
C675        C  0.19774909  0.16193922  0.18142693    -0.04800
C676        C  0.14246829  0.15102451  0.16736614    -0.32200
C677        C  0.13369693  0.11360718  0.12361374     0.37000
C678        C  0.17825744  0.09895865  0.08700281    -0.05100
C679        C  0.23252599  0.09852350  0.10714477    -0.32100
C680        C  0.24108155  0.12483001  0.15830402     0.36900
H681        H  0.10704320  0.16949550  0.19073618     0.17300
O682        O  0.08310573  0.08824767  0.11809998    -0.59600
H683        H  0.26761489  0.08015807  0.08317823     0.17300
O684        O  0.29212880  0.11885756  0.18322728    -0.59700
H685        H  0.32238784  0.11962652  0.15468922     0.44300
H686        H  0.08596194  0.05283928  0.13862831     0.44300
loop_ 
_geom_bond_atom_site_label_1 
_geom_bond_atom_site_label_2 
_geom_bond_distance 
_geom_bond_site_symmetry_2 
_ccdc_geom_bond_type 
C1            C3   1.551       .  S
C1            C5   1.548       .  S
C1            C4   1.587       .  S
C1          C675   1.519       .  S
C2            C6   1.574       .  S
C2            C8   1.558       .  S
C2            C7   1.547       .  S
C2          C663   1.516       .  S
C3           C11   1.380       .  A
C3            C6   1.388       .  A
C4           C15   1.427       .  A
C4            C7   1.385       .  A
C5           C19   1.398       .  A
C5            C8   1.373       .  A
C6            C9   1.418       .  A
C7           C13   1.387       .  A
C8           C16   1.401       .  A
C9           N10   1.378       .  A
C9           H22   1.081       .  S
N10          C11   1.349       .  A
N10         C286   1.472       .  S
C11          H12   1.081       .  S
C13          N14   1.351       .  A
C13          H23   1.083       .  S
N14          C15   1.387       .  A
N14          C45   1.485       .  S
C15          H21   1.082       .  S
C16          N17   1.373       .  A
C16          H18   1.082       .  S
N17          C19   1.371       .  A
N17         C101   1.486       .  S
C19          H20   1.082       .  S
N24          C29   1.366   1_655  A
N24          C28   1.364       .  A
N24          H56   1.042       .  S
N25          C32   1.361       .  A
N25          C33   1.359       .  A
N26          C31   1.369   1_655  A
N26          C30   1.367       .  A
N26          H57   1.041       .  S
N27          C34   1.372       .  A
N27          C35   1.372       .  A
C28          C36   1.387       .  A
C28          C44   1.438       .  A
C29          C45   1.432       .  A
C29          C37   1.385       .  A
C30          C38   1.387       .  A
C30          C47   1.443       .  A
C31          C46   1.440       .  A
C31          C39   1.386       .  A
C32          C44   1.421       .  A
C32          C40   1.383       .  A
C33          C47   1.427       .  A
C33          C41   1.388       .  A
C34          C42   1.385       .  A
C34          C45   1.451       .  A
C35          C43   1.387       .  A
C35          C46   1.454       .  A
C36          C37   1.382   1_655  A
C36          H48   1.080       .  S
C37          H49   1.082       .  S
C38          C39   1.382   1_655  A
C38          H50   1.082       .  S
C39          H51   1.081       .  S
C40          C41   1.376       .  A
C40          H52   1.082       .  S
C41          H53   1.081       .  S
C42          C43   1.385       .  A
C42          H54   1.082       .  S
C43          H55   1.082       .  S
C44         N333   1.471       .  S
C46         N379   1.493       .  S
C47          N71   1.474       .  S
C58          C60   1.543       .  S
C58          C62   1.570       .  S
C58          C61   1.561       .  S
C58         C651   1.498       .  S
C59          C63   1.539       .  S
C59          C65   1.548       .  S
C59          C64   1.556       .  S
C59         C639   1.493       .  S
C60          C68   1.408       .  A
C60          C63   1.365       .  A
C61          C72   1.392       .  A
C61          C64   1.383       .  A
C62          C76   1.397       .  A
C62          C65   1.385       .  A
C63          C66   1.380       .  A
C64          C70   1.396       .  A
C65          C73   1.402       .  A
C66          N67   1.352       .  A
C66          H79   1.081       .  S
N67          C68   1.374       .  A
N67         C250   1.468       .  S
C68          H69   1.082       .  S
C70          N71   1.372       .  A
C70          H80   1.082       .  S
N71          C72   1.360       .  A
C72          H78   1.078       .  S
C73          N74   1.362       .  A
C73          H75   1.082       .  S
N74          C76   1.354       .  A
N74         C135   1.463       .  S
C76          H77   1.078       .  S
N81          C86   1.367       .  A
N81          C85   1.370   1_565  A
N81         H113   1.042       .  S
N82          C89   1.364       .  A
N82          C90   1.362       .  A
N83          C88   1.361   1_545  A
N83          C87   1.356       .  A
N83         H114   1.042       .  S
N84          C91   1.360       .  A
N84          C92   1.363       .  A
C85          C93   1.387       .  A
C85         C101   1.444       .  A
C86         C102   1.444       .  A
C86          C94   1.388       .  A
C87          C95   1.388       .  A
C87         C104   1.423       .  A
C88         C103   1.422       .  A
C88          C96   1.385       .  A
C89         C101   1.438       .  A
C89          C97   1.389       .  A
C90         C104   1.429       .  A
C90          C98   1.383       .  A
C91          C99   1.388       .  A
C91         C102   1.431       .  A
C92         C100   1.382       .  A
C92         C103   1.426       .  A
C93          C94   1.384   1_545  A
C93         H105   1.082       .  S
C94         H106   1.082       .  S
C95          C96   1.377   1_545  A
C95         H107   1.082       .  S
C96         H108   1.082       .  S
C97          C98   1.382       .  A
C97         H109   1.081       .  S
C98         H110   1.082       .  S
C99         C100   1.378       .  A
C99         H111   1.081       .  S
C100        H112   1.082       .  S
C102        N382   1.474       .  S
C103        N158   1.466       .  S
C104        N359   1.459       .  S
N115        C120   1.363       .  A
N115        C119   1.360   1_545  A
N115        H147   1.039       .  S
N116        C123   1.362       .  A
N116        C124   1.362       .  A
N117        C122   1.364       .  A
N117        C121   1.368   1_545  A
N117        H148   1.041       .  S
N118        C125   1.366       .  A
N118        C126   1.362       .  A
C119        C127   1.387       .  A
C119        C135   1.429       .  A
C120        C136   1.427       .  A
C120        C128   1.385       .  A
C121        C129   1.386       .  A
C121        C138   1.438       .  A
C122        C137   1.438       .  A
C122        C130   1.388       .  A
C123        C135   1.426       .  A
C123        C131   1.383       .  A
C124        C138   1.434       .  A
C124        C132   1.388       .  A
C125        C133   1.383       .  A
C125        C136   1.433       .  A
C126        C134   1.389       .  A
C126        C137   1.439       .  A
C127        C128   1.378   1_565  A
C127        H139   1.082       .  S
C128        H140   1.082       .  S
C129        C130   1.380   1_565  A
C129        H141   1.082       .  S
C130        H142   1.081       .  S
C131        C132   1.380       .  A
C131        H143   1.082       .  S
C132        H144   1.081       .  S
C133        C134   1.382       .  A
C133        H145   1.082       .  S
C134        H146   1.082       .  S
C136        N336   1.473       .  S
C137        N222   1.473       .  S
C138        N313   1.480       .  S
C149        C151   1.555       .  S
C149        C153   1.552       .  S
C149        C152   1.564       .  S
C149        C627   1.512       .  S
C150        C154   1.562       .  S
C150        C156   1.557       .  S
C150        C155   1.546       .  S
C150        C615   1.510       .  S
C151        C159   1.395       .  A
C151        C154   1.391       .  A
C152        C163   1.417       .  A
C152        C155   1.373       .  A
C153        C167   1.380       .  A
C153        C156   1.375       .  A
C154        C157   1.395       .  A
C155        C161   1.378       .  A
C156        C164   1.413       .  A
C157        N158   1.365       .  A
C157        H170   1.082       .  S
N158        C159   1.362       .  A
C159        H160   1.081       .  S
C161        N162   1.339       .  A
C161        H171   1.072       .  S
N162        C163   1.381       .  A
N162        C192   1.470       .  S
C163        H169   1.082       .  S
C164        N165   1.372       .  A
C164        H166   1.082       .  S
N165        C167   1.349       .  A
N165        C252   1.467       .  S
C167        H168   1.078       .  S
N172        C177   1.354       .  A
N172        C176   1.358       .  A
N172        H204   1.043       .  S
N173        C180   1.366       .  A
N173        C181   1.365   1_455  A
N174        C179   1.368       .  A
N174        C178   1.365       .  A
N174        H205   1.039       .  S
N175        C182   1.362       .  A
N175        C183   1.365   1_455  A
C176        C184   1.383       .  A
C176        C192   1.411       .  A
C177        C193   1.416       .  A
C177        C185   1.388       .  A
C178        C186   1.388       .  A
C178        C195   1.441       .  A
C179        C194   1.440       .  A
C179        C187   1.387       .  A
C180        C192   1.445       .  A
C180        C188   1.388       .  A
C181        C195   1.435       .  A
C181        C189   1.384       .  A
C182        C190   1.387       .  A
C182        C193   1.438       .  A
C183        C191   1.384       .  A
C183        C194   1.434       .  A
C184        C185   1.373       .  A
C184        H196   1.082       .  S
C185        H197   1.082       .  S
C186        C187   1.382       .  A
C186        H198   1.082       .  S
C187        H199   1.082       .  S
C188        C189   1.382   1_455  A
C188        H200   1.082       .  S
C189        H201   1.082       .  S
C190        C191   1.381   1_455  A
C190        H202   1.079       .  S
C191        H203   1.082       .  S
C193        N356   1.462       .  S
C194        N219   1.480       .  S
C195        N310   1.475       .  S
C206        C208   1.536       .  S
C206        C210   1.549       .  S
C206        C209   1.569       .  S
C206        C594   1.508       .  S
C207        C211   1.555       .  S
C207        C213   1.568       .  S
C207        C212   1.570       .  S
C207        C603   1.513       .  S
C208        C216   1.384       .  A
C208        C211   1.365       .  A
C209        C220   1.404       .  A
C209        C212   1.402       .  A
C210        C224   1.400       .  A
C210        C213   1.376       .  A
C211        C214   1.410       .  A
C212        C218   1.399       .  A
C213        C221   1.397       .  A
C214        N215   1.375       .  A
C214        H227   1.082       .  S
N215        C216   1.349       .  A
N215        C284   1.467       .  S
C216        H217   1.081       .  S
C218        N219   1.364       .  A
C218        H228   1.073       .  S
N219        C220   1.371       .  A
C220        H226   1.081       .  S
C221        N222   1.360       .  A
C221        H223   1.074       .  S
N222        C224   1.366       .  A
C224        H225   1.082       .  S
N229        C234   1.361       .  A
N229        C233   1.364       .  A
N229        H261   1.041       .  S
N230        C237   1.361   1_556  A
N230        C238   1.359       .  A
N231        C236   1.365       .  A
N231        C235   1.361       .  A
N231        H262   1.042       .  S
N232        C239   1.361   1_556  A
N232        C240   1.364       .  A
C233        C241   1.382       .  A
C233        C249   1.426       .  A
C234        C250   1.438       .  A
C234        C242   1.392       .  A
C235        C243   1.390       .  A
C235        C252   1.437       .  A
C236        C251   1.426       .  A
C236        C244   1.382       .  A
C237        C249   1.429       .  A
C237        C245   1.386       .  A
C238        C252   1.427       .  A
C238        C246   1.386       .  A
C239        C247   1.385       .  A
C239        C250   1.430       .  A
C240        C248   1.388       .  A
C240        C251   1.439       .  A
C241        C242   1.380       .  A
C241        H253   1.082       .  S
C242        H254   1.082       .  S
C243        C244   1.381       .  A
C243        H255   1.082       .  S
C244        H256   1.082       .  S
C245        C246   1.381   1_554  A
C245        H257   1.082       .  S
C246        H258   1.082       .  S
C247        C248   1.383   1_554  A
C247        H259   1.082       .  S
C248        H260   1.082       .  S
C249        N375   1.470       .  S
C251        N306   1.478       .  S
N263        C268   1.360       .  A
N263        C267   1.360       .  A
N263        H295   1.041       .  S
N264        C271   1.361   1_554  A
N264        C272   1.360       .  A
N265        C270   1.363       .  A
N265        C269   1.365       .  A
N265        H296   1.041       .  S
N266        C273   1.362   1_554  A
N266        C274   1.361       .  A
C267        C275   1.391       .  A
C267        C283   1.434       .  A
C268        C284   1.419       .  A
C268        C276   1.382       .  A
C269        C277   1.383       .  A
C269        C286   1.430       .  A
C270        C285   1.442       .  A
C270        C278   1.391       .  A
C271        C283   1.426       .  A
C271        C279   1.383       .  A
C272        C286   1.435       .  A
C272        C280   1.388       .  A
C273        C281   1.388       .  A
C273        C284   1.435       .  A
C274        C282   1.385       .  A
C274        C285   1.428       .  A
C275        C276   1.380       .  A
C275        H287   1.082       .  S
C276        H288   1.082       .  S
C277        C278   1.382       .  A
C277        H289   1.082       .  S
C278        H290   1.082       .  S
C279        C280   1.382   1_556  A
C279        H291   1.082       .  S
C280        H292   1.082       .  S
C281        C282   1.381   1_556  A
C281        H293   1.082       .  S
C282        H294   1.081       .  S
C283        N352   1.467       .  S
C285        N329   1.471       .  S
C297        C299   1.580       .  S
C297        C301   1.558       .  S
C297        C300   1.548       .  S
C297        C567   1.521       .  S
C298        C302   1.559       .  S
C298        C304   1.540       .  S
C298        C303   1.572       .  S
C298        C579   1.510       .  S
C299        C307   1.419       .  A
C299        C302   1.394       .  A
C300        C311   1.388       .  A
C300        C303   1.378       .  A
C301        C315   1.397       .  A
C301        C304   1.373       .  A
C302        C305   1.387       .  A
C303        C309   1.419       .  A
C304        C312   1.394       .  A
C305        N306   1.351       .  A
C305        H318   1.078       .  S
N306        C307   1.379       .  A
C307        H308   1.080       .  S
C309        N310   1.376       .  A
C309        H319   1.079       .  S
N310        C311   1.352       .  A
C311        H317   1.082       .  S
C312        N313   1.370       .  A
C312        H314   1.082       .  S
N313        C315   1.371       .  A
C315        H316   1.082       .  S
C320        C322   1.548       .  S
C320        C324   1.559       .  S
C320        C323   1.560       .  S
C320        C558   1.508       .  S
C321        C325   1.563       .  S
C321        C327   1.566       .  S
C321        C326   1.544       .  S
C321        C546   1.505       .  S
C322        C330   1.379       .  A
C322        C325   1.374       .  A
C323        C334   1.410       .  A
C323        C326   1.373       .  A
C324        C338   1.402       .  A
C324        C327   1.389       .  A
C325        C328   1.419       .  A
C326        C332   1.381       .  A
C327        C335   1.397       .  A
C328        N329   1.376       .  A
C328        H341   1.081       .  S
N329        C330   1.346       .  A
C330        H331   1.078       .  S
C332        N333   1.352       .  A
C332        H342   1.081       .  S
N333        C334   1.377       .  A
C334        H340   1.082       .  S
C335        N336   1.367       .  A
C335        H337   1.082       .  S
N336        C338   1.367       .  A
C338        H339   1.081       .  S
C343        C345   1.541       .  S
C343        C347   1.536       .  S
C343        C346   1.555       .  S
C343        C519   1.495       .  S
C344        C348   1.564       .  S
C344        C350   1.549       .  S
C344        C349   1.544       .  S
C344        C531   1.496       .  S
C345        C353   1.375       .  A
C345        C348   1.380       .  A
C346        C357   1.392       .  A
C346        C349   1.385       .  A
C347        C361   1.396       .  A
C347        C350   1.371       .  A
C348        C351   1.416       .  A
C349        C355   1.380       .  A
C350        C358   1.387       .  A
C351        N352   1.376       .  A
C351        H364   1.081       .  S
N352        C353   1.349       .  A
C353        H354   1.082       .  S
C355        N356   1.353       .  A
C355        H365   1.082       .  S
N356        C357   1.374       .  A
C357        H363   1.082       .  S
C358        N359   1.360       .  A
C358        H360   1.082       .  S
N359        C361   1.363       .  A
C361        H362   1.082       .  S
C366        C368   1.568       .  S
C366        C370   1.556       .  S
C366        C369   1.567       .  S
C366        C507   1.505       .  S
C367        C371   1.548       .  S
C367        C373   1.527       .  S
C367        C372   1.585       .  S
C367        C495   1.504       .  S
C368        C376   1.412       .  A
C368        C371   1.377       .  A
C369        C380   1.395       .  A
C369        C372   1.400       .  A
C370        C384   1.406       .  A
C370        C373   1.355       .  A
C371        C374   1.388       .  A
C372        C378   1.416       .  A
C373        C381   1.391       .  A
C374        N375   1.354       .  A
C374        H387   1.082       .  S
N375        C376   1.373       .  A
C376        H377   1.081       .  S
C378        N379   1.386       .  A
C378        H388   1.082       .  S
N379        C380   1.363       .  A
C380        H386   1.081       .  S
C381        N382   1.358       .  A
C381        H383   1.082       .  S
N382        C384   1.373       .  A
C384        H385   1.082       .  S
C389        N407   1.340       .  A
C389        C426   1.450       .  S
C389        C498   1.477       .  S
N390        N407   1.308       .  A
N390        N412   1.314   1_554  A
N390       Co427   2.025       .  S
C391        N416   1.332       .  A
C391        H436   1.082   1_455  S
C391        C429   1.468       .  S
H392        C433   1.081       .  S
C393        N417   1.321       .  A
C393        H422   1.083       .  S
C393        C397   1.459       .  S
Co394       N412   2.079       .  S
Co394       N402   2.117   1_565  S
Co394       N434   2.050       .  S
Co394       N410   2.050   1_565  S
Co394      Cl438   2.354   1_556  S
N395        C433   1.331   1_556  A
N395        N402   1.314       .  A
N395       Co396   2.051       .  S
Co396       N399   2.064   1_456  S
Co396       N416   2.032       .  S
Co396       N403   2.004   1_455  S
Co396      Cl438   2.458   1_546  S
C397        N435   1.354       .  A
C397        C543   1.445       .  S
N398        N405   1.312   1_655  A
N398        N428   1.310       .  A
N398       Co431   2.068       .  S
N399        N417   1.312       .  A
N399        N435   1.322       .  A
N400        C429   1.342       .  A
N400        N410   1.314       .  A
H401        C426   1.077       .  S
N402        N423   1.326   1_556  A
N403        N421   1.312   1_556  A
N403        N408   1.302       .  A
C404        N408   1.334       .  A
C404        C432   1.460       .  S
C404        C591   1.432       .  S
N405        C420   1.333       .  A
N405       Co427   2.032       .  S
C406        N434   1.318       .  A
C406        H440   1.078       .  S
C406        C409   1.457       .  S
C409        N430   1.354       .  A
C409        C618   1.449       .  S
N410        N416   1.304       .  A
N411        C437   1.331   1_554  A
N411        N413   1.315       .  A
N411       Co427   2.061   1_655  S
N412        C426   1.342   1_556  A
N413        N441   1.321       .  A
N413       Co431   2.069       .  S
H414        C437   1.080       .  S
H415        C432   1.081   1_554  S
N417       Co431   2.028   1_545  S
N418        N430   1.321       .  A
N418        N434   1.308       .  A
N418       Co427   2.035   1_556  S
C419        N423   1.351       .  A
C419        C433   1.459       .  S
C419        C678   1.482       .  S
C420        H424   1.083       .  S
C420        C439   1.465   1_455  S
N421        C432   1.345   1_554  A
N421       Co431   2.077   1_545  S
C425        N441   1.344   1_556  A
C425        C437   1.459       .  S
C425        C582   1.469       .  S
Co427      Cl438   2.484       .  S
N428        C439   1.346       .  A
C429        C534   1.459       .  S
Co431      Cl438   2.374   1_655  S
C439        C654   1.469       .  S
C442        N460   1.343       .  A
C442        C479   1.477       .  S
C442        C555   1.470       .  S
N443        N460   1.307       .  A
N443        N465   1.309       .  A
N443       Co480   2.082       .  S
C444        N469   1.323       .  A
C444        H489   1.074       .  S
C444        C482   1.453       .  S
H445        C486   1.079       .  S
C446        N470   1.322       .  A
C446        H475   1.081       .  S
C446        C450   1.457       .  S
Co447       N465   2.034       .  S
Co447       N455   2.018       .  S
Co447       N487   2.004       .  S
Co447       N463   2.060       .  S
Co447      Cl491   2.479       .  S
N448        C486   1.348       .  A
N448        N455   1.313       .  A
N448       Co449   2.080       .  S
Co449       N452   2.073       .  S
Co449       N469   2.045       .  S
Co449       N456   2.074       .  S
Co449      Cl491   2.357       .  S
C450        N488   1.353       .  A
C450        C510   1.471       .  S
N451        N458   1.310       .  A
N451        N481   1.317       .  A
N451       Co484   2.043       .  S
N452        N470   1.308       .  A
N452        N488   1.320       .  A
N453        C482   1.360       .  A
N453        N463   1.321       .  A
H454        C479   1.082       .  S
N455        N476   1.306       .  A
N456        N474   1.308       .  A
N456        N461   1.306       .  A
C457        N461   1.341       .  A
C457        C485   1.481       .  S
C457        C630   1.473       .  S
N458        C473   1.325       .  A
N458       Co480   2.050       .  S
C459        N487   1.312       .  A
C459        H493   1.076       .  S
C459        C462   1.452       .  S
C462        N483   1.362       .  A
C462        C606   1.474       .  S
N463        N469   1.309       .  A
N464        C490   1.348       .  A
N464        N466   1.315       .  A
N464       Co480   2.078       .  S
N465        C479   1.340       .  A
N466        N494   1.305       .  A
N466       Co484   2.028       .  S
H467        C490   1.081       .  S
H468        C485   1.082       .  S
N470       Co484   2.026       .  S
N471        N483   1.323       .  A
N471        N487   1.305       .  A
N471       Co480   2.083       .  S
C472        N476   1.333       .  A
C472        C486   1.463       .  S
C472        C666   1.446       .  S
C473        H477   1.077       .  S
C473        C492   1.456       .  S
N474        C485   1.340       .  A
N474       Co484   2.039       .  S
C478        N494   1.333       .  A
C478        C490   1.465       .  S
C478        C570   1.444       .  S
Co480      Cl491   2.365       .  S
N481        C492   1.354       .  A
C482        C522   1.464       .  S
Co484      Cl491   2.477       .  S
C492        C642   1.460       .  S
C495        C496   1.404       .  A
C495        C500   1.446       .  A
C496        C497   1.405       .  A
C496        H501   1.083       .  S
C497        C498   1.409       .  A
C497        O502   1.366       .  S
C498        C499   1.377       .  A
C499        C500   1.395       .  A
C499        H503   1.083       .  S
C500        O504   1.378       .  S
O502        H506   0.991       .  S
O504        H505   0.993       .  S
C507        C508   1.416       .  A
C507        C512   1.410       .  A
C508        C509   1.394       .  A
C508        H513   1.076       .  S
C509        C510   1.397       .  A
C509        O514   1.372       .  S
C510        C511   1.403       .  A
C511        C512   1.380       .  A
C511        H515   1.073       .  S
C512        O516   1.370       .  S
O514        H518   0.992       .  S
O516        H517   0.993       .  S
C519        C520   1.406       .  A
C519        C524   1.426       .  A
C520        C521   1.388       .  A
C520        H525   1.083       .  S
C521        C522   1.407       .  A
C521        O526   1.371       .  S
C522        C523   1.389       .  A
C523        C524   1.388       .  A
C523        H527   1.082       .  S
C524        O528   1.373       .  S
O526        H530   0.991       .  S
O528        H529   0.992       .  S
C531        C532   1.420       .  A
C531        C536   1.402       .  A
C532        C533   1.382       .  A
C532        H537   1.076       .  S
C533        C534   1.388       .  A
C533        O538   1.373       .  S
C534        C535   1.414       .  A
C535        C536   1.385       .  A
C535        H539   1.083       .  S
C536        O540   1.371       .  S
O538        H542   0.993       .  S
O540        H541   0.992       .  S
C543        C544   1.392       .  A
C543        C548   1.405       .  A
C544        C545   1.386       .  A
C544        H549   1.085       .  S
C545        C546   1.426       .  A
C545        O550   1.370       .  S
C546        C547   1.408       .  A
C547        C548   1.387       .  A
C547        H551   1.076       .  S
C548        O552   1.372       .  S
O550        H554   0.991       .  S
O552        H553   0.992       .  S
C555        C556   1.397       .  A
C555        C560   1.407       .  A
C556        C557   1.395       .  A
C556        H561   1.083       .  S
C557        C558   1.425       .  A
C557        O562   1.370       .  S
C558        C559   1.413       .  A
C559        C560   1.395       .  A
C559        H563   1.081       .  S
C560        O564   1.376       .  S
O562        H566   0.992       .  S
O564        H565   0.992       .  S
C567        C568   1.420       .  A
C567        C572   1.412       .  A
C568        C569   1.385       .  A
C568        H573   1.082       .  S
C569        C570   1.391       .  A
C569        O574   1.372       .  S
C570        C571   1.409       .  A
C571        C572   1.407       .  A
C571        H575   1.084       .  S
C572        O576   1.369       .  S
O574        H578   0.992       .  S
O576        H577   0.991       .  S
C579        C580   1.412       .  A
C579        C584   1.390       .  A
C580        C581   1.398       .  A
C580        H585   1.083       .  S
C581        C582   1.397       .  A
C581        O586   1.371       .  S
C582        C583   1.407       .  A
C583        C584   1.395       .  A
C583        H587   1.071       .  S
C584        O588   1.374       .  S
O586        H590   0.992       .  S
O588        H589   0.987       .  S
C591        C592   1.401       .  A
C591        C596   1.389       .  A
C592        C593   1.395       .  A
C592        H597   1.085       .  S
C593        C594   1.417       .  A
C593        O598   1.371       .  S
C594        C595   1.419       .  A
C595        C596   1.387       .  A
C595        H599   1.075       .  S
C596        O600   1.373       .  S
O598        H602   0.991       .  S
O600        H601   0.992       .  S
C603        C604   1.399       .  A
C603        C608   1.403       .  A
C604        C605   1.386       .  A
C604        H609   1.085       .  S
C605        C606   1.415       .  A
C605        O610   1.375       .  S
C606        C607   1.407       .  A
C607        C608   1.405       .  A
C607        H611   1.083       .  S
C608        O612   1.375       .  S
O610        H614   0.991       .  S
O612        H613   0.993       .  S
C615        C616   1.413       .  A
C615        C620   1.429       .  A
C616        C617   1.388       .  A
C616        H621   1.076       .  S
C617        C618   1.406       .  A
C617        O622   1.373       .  S
C618        C619   1.398       .  A
C619        C620   1.395       .  A
C619        H623   1.085       .  S
C620        O624   1.368       .  S
O622        H626   0.992       .  S
O624        H625   0.993       .  S
C627        C628   1.410       .  A
C627        C632   1.428       .  A
C628        C629   1.395       .  A
C628        H633   1.083       .  S
C629        C630   1.410       .  A
C629        O634   1.376       .  S
C630        C631   1.395       .  A
C631        C632   1.395       .  A
C631        H635   1.083       .  S
C632        O636   1.369       .  S
O634        H638   0.992       .  S
O636        H637   0.993       .  S
C639        C640   1.413       .  A
C639        C644   1.427       .  A
C640        C641   1.386       .  A
C640        H645   1.082       .  S
C641        C642   1.398       .  A
C641        O646   1.371       .  S
C642        C643   1.391       .  A
C643        C644   1.390       .  A
C643        H647   1.082       .  S
C644        O648   1.371       .  S
O646        H650   0.992       .  S
O648        H649   0.992       .  S
C651        C652   1.390       .  A
C651        C656   1.394       .  A
C652        C653   1.386       .  A
C652        H657   1.081       .  S
C653        C654   1.410       .  A
C653        O658   1.375       .  S
C654        C655   1.420       .  A
C655        C656   1.387       .  A
C655        H659   1.081       .  S
C656        O660   1.372       .  S
O658        H662   0.992       .  S
O660        H661   0.992       .  S
C663        C664   1.402       .  A
C663        C668   1.425       .  A
C664        C665   1.401       .  A
C664        H669   1.078       .  S
C665        C666   1.414       .  A
C665        O670   1.372       .  S
C666        C667   1.386       .  A
C667        C668   1.388       .  A
C667        H671   1.085       .  S
C668        O672   1.374       .  S
O670        H674   0.991       .  S
O672        H673   0.992       .  S
C675        C676   1.389       .  A
C675        C680   1.431       .  A
C676        C677   1.393       .  A
C676        H681   1.082       .  S
C677        C678   1.402       .  A
C677        O682   1.355       .  S
C678        C679   1.391       .  A
C679        C680   1.409       .  A
C679        H683   1.083       .  S
C680        O684   1.379       .  S
O682        H686   0.991       .  S
O684        H685   0.992       .  S
