geometry optimzed in LAMMPS
_audit_creation_date              2020-12-01 
_audit_creation_method            'lammps2cif' 
_symmetry_space_group_name_H-M    'P1' 
_symmetry_Int_Tables_number       1 
_symmetry_cell_setting            triclinic 
loop_ 
_symmetry_equiv_pos_as_xyz 
  x,y,z 
_cell_length_a                    60.35676167 
_cell_length_b                    60.952033910812844 
_cell_length_c                    46.87184643337507 
_cell_angle_alpha                 89.91983575279318 
_cell_angle_beta                  89.97412842268652 
_cell_angle_gamma                 89.97605953817008 
loop_ 
_atom_site_label 
_atom_site_type_symbol 
_atom_site_fract_x 
_atom_site_fract_y 
_atom_site_fract_z 
_atom_site_charge 
O1          O  0.27582282  0.64606339  0.25165554    -0.56600
C2          C  0.24304808  0.69699833  0.21135504     0.76100
O3          O  0.20253122  0.65354543  0.24986515    -0.57700
C4          C  0.27668418  0.63928585  0.27725054     0.76000
C5          C  0.23982025  0.69566180  0.30601125     0.78400
Cd6        Cd  0.24110541  0.66649228  0.25807420     1.37500
O7          O  0.25940857  0.68457171  0.21662449    -0.56600
O8          O  0.25472005  0.69657795  0.28706663    -0.55400
C9          C  0.20817827  0.63531944  0.23916930     0.78400
O10         O  0.22494410  0.68113878  0.30286703    -0.57700
O11         O  0.22626949  0.69490690  0.22719990    -0.56200
O12         O  0.26123819  0.64525895  0.29379400    -0.56200
O13         O  0.22865619  0.63111664  0.23878708    -0.55400
O14         O  0.28864832  0.85434741  0.00474672    -0.56600
C15         C  0.25623176  0.80019893  0.46209628     0.76100
O16         O  0.23672663  0.81262988  0.04802047    -0.57700
C17         C  0.28666007  0.86156615  0.02999884     0.76000
C18         C  0.21947649  0.86007552  0.48705909     0.78400
Cd19       Cd  0.25433291  0.83149945  0.00746527     1.37500
O20         O  0.27236656  0.81312934  0.46658906    -0.56600
O21         O  0.21852576  0.85187392  0.51189315    -0.55400
C22         C  0.25309845  0.80001163  0.05257248     0.78400
O23         O  0.23624802  0.85517564  0.47222975    -0.57700
O24         O  0.23979277  0.80172769  0.47873166    -0.56200
O25         O  0.27010554  0.85495404  0.04403110    -0.56200
O26         O  0.26962713  0.80193264  0.03613452    -0.55400
O27         O  0.56896278  0.97705065  0.42121619    -0.56600
C28         C  0.61319969  0.96153918  0.35433586     0.76100
O29         O  0.57080017  0.01431297  0.33563206    -0.57700
C30         C  0.55618111  0.99298926  0.42699207     0.76000
C31         C  0.61702339  0.02660047  0.40088703     0.78400
Cd32       Cd  0.58547096  0.99537417  0.37856731     1.37500
O33         O  0.59906047  0.95689785  0.37348491    -0.56600
O34         O  0.62011269  0.00611390  0.40231606    -0.55400
C35         C  0.55472747  0.00116428  0.33236708     0.78400
O36         O  0.59954125  0.03293078  0.38837733    -0.57700
O37         O  0.61419841  0.98140700  0.34655610    -0.56200
O38         O  0.55743726  0.00957480  0.41090071    -0.56200
O39         O  0.55318569  0.98563048  0.35012938    -0.55400
O40         O  0.43297184  0.98370240  0.17205791    -0.56600
C41         C  0.39078828  0.96960381  0.10397669     0.76100
O42         O  0.40485691  0.04121585  0.13409450    -0.57700
C43         C  0.44738799  0.99827716  0.17722126     0.76000
C44         C  0.44923235  0.00445054  0.08241328     0.78400
Cd45       Cd  0.41840281  0.00267417  0.12885911     1.37500
O46         O  0.39590654  0.96883816  0.13021331    -0.56600
O47         O  0.44836359  0.98828476  0.09938534    -0.55400
C48         C  0.38743399  0.03590956  0.14750709     0.78400
O49         O  0.43605310  0.02027074  0.08722772    -0.57700
O50         O  0.39838970  0.98549047  0.08964650    -0.56200
O51         O  0.44836707  0.01421619  0.16003596    -0.56200
O52         O  0.38412066  0.01563423  0.15098866    -0.55400
O53         O  0.70801315  0.34816325  0.24968700    -0.56600
C54         C  0.74826423  0.30413702  0.30057968     0.76100
O55         O  0.76351615  0.31842534  0.20937712    -0.57700
C56         C  0.71342537  0.36444852  0.23426781     0.76000
C57         C  0.77923261  0.36502093  0.27246067     0.78400
Cd58       Cd  0.74686267  0.33425157  0.25342440     1.37500
O59         O  0.73134676  0.31618756  0.29678156    -0.56600
O60         O  0.75904922  0.36621608  0.27959016    -0.55400
C61         C  0.74751489  0.30524658  0.20562222     0.78400
O62         O  0.78483113  0.34932485  0.25621106    -0.57700
O63         O  0.76411521  0.30662855  0.28331135    -0.56200
O64         O  0.73373578  0.36644703  0.22818576    -0.56200
O65         O  0.73177799  0.30614974  0.22332174    -0.55400
O66         O  0.78185018  0.14655659  0.99795989    -0.56600
C67         C  0.74680408  0.19768560  0.45645557     0.76100
O68         O  0.70868341  0.15269770  0.50417023    -0.57700
C69         C  0.78245636  0.13990713  0.02362861     0.76000
C70         C  0.75014031  0.19947034  0.04976500     0.78400
Cd71       Cd  0.74742723  0.16783689  0.50408283     1.37500
O72         O  0.76369193  0.18576686  0.46093618    -0.56600
O73         O  0.76531320  0.19733634  0.03137205    -0.55400
C74         C  0.71342393  0.13622222  0.48882247     0.78400
O75         O  0.73341056  0.18695799  0.04730069    -0.57700
O76         O  0.73069445  0.19529762  0.47337109    -0.56200
O77         O  0.76701185  0.14625328  0.03993565    -0.56200
O78         O  0.73351317  0.13418549  0.48170860    -0.55400
O79         O  0.42883025  0.48162415  0.32564178    -0.56600
C80         C  0.38706871  0.46457985  0.38990850     0.76100
O81         O  0.43153285  0.52124952  0.40900866    -0.57700
C82         C  0.44334407  0.49612426  0.32038080     0.76000
C83         C  0.38464642  0.53691511  0.35539811     0.78400
Cd84       Cd  0.41400267  0.50087769  0.36888474     1.37500
O85         O  0.38329633  0.47293906  0.36566498    -0.56600
O86         O  0.39287446  0.52441926  0.33672510    -0.55400
C87         C  0.44685266  0.50720511  0.41239295     0.78400
O88         O  0.38999700  0.53305618  0.38103776    -0.57700
O89         O  0.40314525  0.47254272  0.40354026    -0.56200
O90         O  0.44402095  0.51227341  0.33722949    -0.56200
O91         O  0.44689013  0.49098482  0.39559069    -0.55400
O92         O  0.59821691  0.53465478  0.10936644    -0.56600
C93         C  0.55098517  0.50186666  0.16436337     0.76100
O94         O  0.56744301  0.48073474  0.07260443    -0.57700
C95         C  0.61443970  0.52760740  0.09474685     0.76000
C96         C  0.60794277  0.46297346  0.14243993     0.78400
Cd97       Cd  0.58171716  0.49744136  0.11746610     1.37500
O98         O  0.56588410  0.51624211  0.16023830    -0.56600
O99         O  0.61139481  0.48311940  0.14720526    -0.55400
C100        C  0.55379210  0.49614217  0.06779041     0.78400
O101        O  0.59227618  0.45834133  0.12544197    -0.57700
O102        O  0.55035492  0.48614119  0.14685384    -0.56200
O103        O  0.61581632  0.50703403  0.09180748    -0.56200
O104        O  0.55311199  0.51147122  0.08588429    -0.55400
O105        O  0.78460350  0.63981258  0.50510933    -0.56600
C106        C  0.75439866  0.69069580  0.04904799     0.76100
O107        O  0.73840883  0.68325771  0.45535799    -0.57700
C108        C  0.78588568  0.63459280  0.47896674     0.76000
C109        C  0.71637971  0.63359320  0.00979318     0.78400
Cd110      Cd  0.75226292  0.66400433  0.99854932     1.37500
O111        O  0.77065751  0.67869337  0.04204242    -0.56600
O112        O  0.73647463  0.62860120  0.01349798    -0.55400
C113        C  0.75410441  0.69710210  0.45453543     0.78400
O114        O  0.71257395  0.65251223  0.99970062    -0.57700
O115        O  0.73736974  0.68957736  0.03347258    -0.56200
O116        O  0.77206571  0.64342489  0.46219407    -0.56200
O117        O  0.76859070  0.69562022  0.47391256    -0.55400
O118        O  0.71444061  0.84311167  0.25933664    -0.56600
C119        C  0.74810075  0.80002438  0.20036154     0.76100
O120        O  0.78850638  0.84932584  0.24879674    -0.57700
C121        C  0.72008759  0.86267278  0.26456231     0.76000
C122        C  0.75461229  0.79985923  0.29427312     0.78400
Cd123      Cd  0.75235430  0.82998889  0.24690952     1.37500
O124        O  0.73322604  0.81439797  0.20468630    -0.56600
O125        O  0.73949157  0.79977947  0.27572537    -0.55400
C126        C  0.78838635  0.85418696  0.22240106     0.78400
O127        O  0.76957685  0.81434131  0.29147220    -0.57700
O128        O  0.76432509  0.79977351  0.21742300    -0.56200
O129        O  0.74017574  0.86736616  0.26028293    -0.56200
O130        O  0.77205630  0.84755402  0.20788838    -0.55400
O131        O  0.89441776  0.03561923  0.13331367    -0.56600
C132        C  0.94770123  0.00193223  0.17004818     0.76100
O133        O  0.89213210  0.98307552  0.16040077    -0.57700
C134        C  0.88569471  0.03576515  0.10875124     0.76000
C135        C  0.94624268  0.00073019  0.07774582     0.78400
Cd136      Cd  0.91559521  0.00092722  0.12500874     1.37500
O137        O  0.93504749  0.01818531  0.16548361    -0.56600
O138        O  0.94605491  0.01564152  0.09647657    -0.55400
C139        C  0.88741338  0.96608947  0.14629385     0.78400
O140        O  0.93220175  0.98538552  0.08072714    -0.57700
O141        O  0.94577182  0.98568484  0.15345241    -0.56200
O142        O  0.89051318  0.01992804  0.09253598    -0.56200
O143        O  0.89517435  0.96504510  0.12118014    -0.55400
O144        O  0.10733113  0.95800850  0.36897950    -0.56600
C145        C  0.05059331  0.98582804  0.32883909     0.76100
O146        O  0.06401909  0.00883539  0.41441209    -0.57700
C147        C  0.11368713  0.95836825  0.39471952     0.76000
C148        C  0.10942550  0.02466934  0.34853791     0.78400
Cd149      Cd  0.08252268  0.99044836  0.37346042     1.37500
O150        O  0.06408021  0.97031799  0.33396739    -0.56600
O151        O  0.10399156  0.00746257  0.33537543    -0.55400
C152        C  0.05038149  0.99324532  0.41843045     0.78400
O153        O  0.10269961  0.02634666  0.37409985    -0.57700
O154        O  0.05163961  0.00248719  0.34484119    -0.56200
O155        O  0.10561099  0.97325144  0.41029417    -0.56200
O156        O  0.05200079  0.97682753  0.40206036    -0.55400
O157        O  0.28245716  0.15136402  0.24155943    -0.56600
C158        C  0.24442077  0.19522902  0.29239122     0.76100
O159        O  0.22423922  0.18007643  0.20510153    -0.57700
C160        C  0.27764588  0.13171123  0.23547594     0.76000
C161        C  0.20903144  0.13557699  0.27002370     0.78400
Cd162      Cd  0.24330457  0.16334717  0.24754521     1.37500
O163        O  0.26045522  0.18200705  0.28897122    -0.56600
O164        O  0.22262841  0.14583790  0.28560932    -0.55400
C165        C  0.24112805  0.19101802  0.19752719     0.78400
O166        O  0.21069821  0.13844615  0.24324047    -0.57700
O167        O  0.22841315  0.19363322  0.27515047    -0.56200
O168        O  0.25740788  0.12660280  0.23656839    -0.56200
O169        O  0.25846489  0.18824722  0.21210719    -0.55400
O170        O  0.23514937  0.31109179  0.45488814    -0.56600
C171        C  0.21929194  0.35880852  0.01509051     0.76100
O172        O  0.27112574  0.31234177  0.03977692    -0.57700
C173        C  0.25092075  0.29756878  0.45149766     0.76000
C174        C  0.28420833  0.35712546  0.47004186     0.78400
Cd175      Cd  0.25246336  0.32876111  0.49660818     1.37500
O176        O  0.21426031  0.34099395  0.00284510    -0.56600
O177        O  0.26587600  0.35215743  0.45870360    -0.55400
C178        C  0.25458781  0.30037086  0.04602437     0.78400
O179        O  0.28837809  0.34872499  0.49431136    -0.57700
O180        O  0.23969511  0.36302029  0.01780910    -0.56200
O181        O  0.26666775  0.29834495  0.46924768    -0.56200
O182        O  0.23788954  0.30185196  0.02991750    -0.55400
O183        O  0.89696482  0.53194361  0.36634265    -0.56600
C184        C  0.94781764  0.49501136  0.32343042     0.76100
O185        O  0.93600185  0.48348965  0.41562527    -0.57700
C186        C  0.88846003  0.53085839  0.39110555     0.76000
C187        C  0.88809155  0.46359137  0.35551781     0.78400
Cd188      Cd  0.91845513  0.49740490  0.37166446     1.37500
O189        O  0.93674499  0.51237757  0.32807091    -0.56600
O190        O  0.88512510  0.48353703  0.34919861    -0.55400
C191        C  0.94995652  0.49903128  0.41709528     0.78400
O192        O  0.90480434  0.45905952  0.37079108    -0.57700
O193        O  0.94503869  0.47935050  0.34070843    -0.56200
O194        O  0.89405967  0.51469107  0.40647880    -0.56200
O195        O  0.94904531  0.51357943  0.39785761    -0.55400
O196        O  0.06674642  0.47753303  0.16269715    -0.56600
C197        C  0.11777658  0.46427820  0.09989880     0.76100
O198        O  0.06953549  0.51125760  0.07731006    -0.57700
C199        C  0.05438981  0.49413534  0.16672036     0.76000
C200        C  0.11546752  0.52583566  0.14583889     0.78400
Cd201      Cd  0.08588671  0.49465158  0.12108868     1.37500
O202        O  0.10262245  0.45775277  0.11672024    -0.56600
O203        O  0.11566860  0.50570468  0.15246732    -0.55400
C204        C  0.05675568  0.49502108  0.07309810     0.78400
O205        O  0.10154001  0.53188025  0.12706999    -0.57700
O206        O  0.11792815  0.48442149  0.09339560    -0.56200
O207        O  0.05684530  0.51015359  0.14987766    -0.56200
O208        O  0.05808191  0.47921865  0.09047369    -0.55400
C209        C  0.99673831  0.50899258  0.47065973     0.17200
C210        C  0.01495807  0.51693414  0.48604242    -0.31800
C211        C  0.02180697  0.50464555  0.01023130     0.21600
C212        C  0.01083611  0.48565431  0.01845790     0.03800
C213        C  0.99259628  0.47782886  0.00315326    -0.21600
C214        C  0.98598733  0.48987820  0.47885949     0.13000
S215        S  0.98582026  0.52119621  0.44110213    -0.05200
C216        C  0.96665907  0.50027146  0.43976205    -0.08700
C217        C  0.96868060  0.48477955  0.46120670    -0.25300
S218        S  0.02129646  0.47345323  0.04816337    -0.02500
C219        C  0.04062142  0.49418342  0.04975049    -0.16000
C220        C  0.03901305  0.50967214  0.02819802    -0.13900
H221        H  0.02335907  0.53186455  0.47970328     0.21400
H222        H  0.98402359  0.46302658  0.00963302     0.17500
H223        H  0.95815039  0.47051233  0.46365097     0.20000
H224        H  0.04969611  0.52384069  0.02593310     0.13300
C225        C  0.01005120  0.50622924  0.22288500     0.17200
C226        C  0.99391604  0.51595207  0.24021931    -0.31800
C227        C  0.98442678  0.50303873  0.26169617     0.21600
C228        C  0.99070656  0.48135267  0.26570132     0.03800
C229        C  0.00686273  0.47159206  0.24831110    -0.21600
C230        C  0.01642297  0.48456197  0.22685282     0.13000
S231        S  0.02342684  0.51929227  0.19581642    -0.05200
C232        C  0.03788522  0.49539065  0.18969931    -0.08700
C233        C  0.03251132  0.47820932  0.20782597    -0.25300
S234        S  0.97747706  0.46860392  0.29325550    -0.02500
C235        C  0.96342945  0.49278012  0.29951193    -0.16000
C236        C  0.96871259  0.50968657  0.28098428    -0.13900
H237        H  0.98903823  0.53289646  0.23716282     0.21400
H238        H  0.01183951  0.45468862  0.25147586     0.17500
H239        H  0.03988315  0.46201770  0.20706158     0.20000
H240        H  0.96169813  0.52603057  0.28184958     0.13300
C241        C  0.16571006  0.43324059  0.06524725     0.17200
C242        C  0.18540506  0.42704945  0.05167773    -0.31800
C243        C  0.18779547  0.40495429  0.04412978     0.21600
C244        C  0.17119393  0.38975090  0.04948262     0.03800
C245        C  0.15166489  0.39587559  0.06352170    -0.21600
C246        C  0.14938736  0.41791870  0.07142271     0.13000
S247        S  0.15930368  0.45937102  0.07505141    -0.05200
C248        C  0.13456632  0.44949815  0.08809287    -0.08700
C249        C  0.13153497  0.42712828  0.08495388    -0.25300
S250        S  0.17703702  0.36385154  0.03800762    -0.02500
C251        C  0.20230647  0.37350360  0.02657516    -0.16000
C252        C  0.20584401  0.39565254  0.03123380    -0.13900
H253        H  0.19825449  0.43895022  0.04709496     0.21400
H254        H  0.13878150  0.38399353  0.06799992     0.17500
H255        H  0.11681602  0.41824557  0.09139547     0.20000
H256        H  0.22084672  0.40441211  0.02562878     0.13300
C257        C  0.26152240  0.26189032  0.11041784     0.17200
C258        C  0.26908415  0.24941698  0.13357433    -0.31800
C259        C  0.25458409  0.23376237  0.14516301     0.21600
C260        C  0.23339216  0.23072699  0.13447007     0.03800
C261        C  0.22580886  0.24323612  0.11134107    -0.21600
C262        C  0.24038462  0.25876052  0.09958976     0.13000
S263        S  0.27672955  0.28136560  0.09279154    -0.05200
C264        C  0.25441474  0.28516426  0.07045391    -0.08700
C265        C  0.23622535  0.27209147  0.07671895    -0.25300
S266        S  0.21834867  0.21097569  0.15184127    -0.02500
C267        C  0.24095385  0.20668059  0.17356350    -0.16000
C268        C  0.25900647  0.21998437  0.16749179    -0.13900
H269        H  0.28561268  0.25168962  0.14206659     0.21400
H270        H  0.20932019  0.24088834  0.10275657     0.17500
H271        H  0.22081371  0.27213044  0.06487775     0.20000
H272        H  0.27454241  0.21974892  0.17905731     0.13300
C273        C  0.23507927  0.23971898  0.34864940     0.17200
C274        C  0.22661949  0.25637498  0.36609910    -0.31800
C275        C  0.23985921  0.26350230  0.38879450     0.21600
C276        C  0.26061831  0.25448776  0.39380380     0.03800
C277        C  0.26913052  0.23796567  0.37624569    -0.21600
C278        C  0.25587005  0.23077540  0.35363876     0.13000
S279        S  0.22143886  0.22851850  0.32040491    -0.05200
C280        C  0.24398521  0.21162653  0.31526734    -0.08700
C281        C  0.26110245  0.21462916  0.33449800    -0.25300
S282        S  0.27401650  0.26504290  0.42260025    -0.02500
C283        C  0.25143883  0.28178570  0.42799685    -0.16000
C284        C  0.23449933  0.27930815  0.40836513    -0.13900
H285        H  0.21037404  0.26334709  0.36228090     0.21400
H286        H  0.28531937  0.23090253  0.38017701     0.17500
H287        H  0.27646030  0.20542694  0.33456855     0.20000
H288        H  0.21912683  0.28848777  0.40847429     0.13300
C289        C  0.14354083  0.06394146  0.30188457     0.17200
C290        C  0.15478201  0.07462009  0.27961143    -0.31800
C291        C  0.16807912  0.09269645  0.28669240     0.21600
C292        C  0.17004061  0.09975437  0.31470112     0.03800
C293        C  0.15862425  0.08924083  0.33687368    -0.21600
C294        C  0.14535867  0.07119841  0.32982167     0.13000
S295        S  0.12730532  0.04124807  0.29794814    -0.05200
C296        C  0.12286249  0.04159830  0.33430508    -0.08700
C297        C  0.13338640  0.05853751  0.34853151    -0.25300
S298        S  0.18770176  0.12124329  0.31926440    -0.02500
C299        C  0.19251358  0.12089559  0.28304468    -0.16000
C300        C  0.18085518  0.10491508  0.26829090    -0.13900
H301        H  0.15346278  0.06890572  0.25781993     0.21400
H302        H  0.16026924  0.09470236  0.35873838     0.17500
H303        H  0.13268677  0.06117223  0.37135353     0.20000
H304        H  0.18216839  0.10198606  0.24557487     0.13300
C305        C  0.99076900  0.01009109  0.02037937     0.17200
C306        C  0.00845021  0.01780835  0.00370177    -0.31800
C307        C  0.01444764  0.00556208  0.47983258     0.21600
C308        C  0.00324856  0.98648854  0.47261675     0.03800
C309        C  0.98535084  0.97894951  0.48897983    -0.21600
C310        C  0.97953944  0.99104769  0.01312631     0.13000
S311        S  0.98139742  0.02228274  0.05082787    -0.05200
C312        C  0.96211956  0.00153410  0.05386208    -0.08700
C313        C  0.96301865  0.98606911  0.03223035    -0.25300
S314        S  0.01360336  0.97338537  0.44342291    -0.02500
C315        C  0.03327867  0.99376623  0.44081117    -0.16000
C316        C  0.03166597  0.00993112  0.46149645    -0.13900
H317        H  0.01729655  0.03261568  0.00943123     0.21400
H318        H  0.97668260  0.96400288  0.48340658     0.17500
H319        H  0.95227830  0.97189163  0.03066708     0.20000
H320        H  0.04269516  0.02387078  0.46330900     0.13300
C321        C  0.98463672  0.00761484  0.23601936     0.17200
C322        C  0.99493697  0.01417090  0.26132144    -0.31800
C323        C  0.00959013  0.99936718  0.27423617     0.21600
C324        C  0.01403927  0.97896848  0.26249393     0.03800
C325        C  0.00363964  0.97234702  0.23718647    -0.21600
C326        C  0.98882669  0.98713315  0.22433957     0.13000
S327        S  0.96599746  0.02309435  0.21742299    -0.05200
C328        C  0.96354507  0.00163224  0.19383161    -0.08700
C329        C  0.97676444  0.98362208  0.20004232    -0.25300
S330        S  0.03301895  0.96381219  0.28118261    -0.02500
C331        C  0.03482338  0.98524402  0.30499353    -0.16000
C332        C  0.02130423  0.00296106  0.29867929    -0.13900
H333        H  0.99165170  0.03011367  0.27057767     0.21400
H334        H  0.00694017  0.95641304  0.22792152     0.17500
H335        H  0.97719497  0.96860065  0.18774101     0.20000
H336        H  0.02051143  0.01797982  0.31096566     0.13300
C337        C  0.85458682  0.92453431  0.19089837     0.17200
C338        C  0.84424856  0.91288609  0.21296587    -0.31800
C339        C  0.83096810  0.89497553  0.20548459     0.21600
C340        C  0.82811191  0.88888348  0.17721698     0.03800
C341        C  0.83892668  0.90022550  0.15512188    -0.21600
C342        C  0.85220483  0.91823465  0.16263300     0.13000
S343        S  0.87023320  0.94745703  0.19572572    -0.05200
C344        C  0.87400098  0.94854352  0.15932486    -0.08700
C345        C  0.86355065  0.93187919  0.14432183    -0.25300
S346        S  0.80961169  0.86802050  0.17248459    -0.02500
C347        C  0.80581236  0.86750352  0.20895978    -0.16000
C348        C  0.81850735  0.88251673  0.22384496    -0.13900
H349        H  0.84602411  0.91793010  0.23499411     0.21400
H350        H  0.83661124  0.89558926  0.13302611     0.17500
H351        H  0.86391668  0.93008465  0.12134312     0.20000
H352        H  0.81768803  0.88504278  0.24669025     0.13300
C353        C  0.84550866  0.57521361  0.40925529     0.17200
C354        C  0.82946390  0.59183322  0.40903271    -0.31800
C355        C  0.82152678  0.59928037  0.43543280     0.21600
C356        C  0.82919497  0.59065027  0.46097890     0.03800
C357        C  0.84500420  0.57380408  0.46119505    -0.21600
C358        C  0.85290334  0.56631099  0.43477775     0.13000
S359        S  0.85769091  0.56428548  0.37954158    -0.05200
C360        C  0.87272236  0.54738298  0.40175453    -0.08700
C361        C  0.86835648  0.55017953  0.43057530    -0.25300
S362        S  0.81773762  0.60228404  0.49070631    -0.02500
C363        C  0.80232641  0.61878179  0.46840491    -0.16000
C364        C  0.80600649  0.61533012  0.43957322    -0.13900
H365        H  0.82352478  0.59875539  0.38916891     0.21400
H366        H  0.85097083  0.56691621  0.48106543     0.17500
H367        H  0.87625361  0.54101796  0.44757718     0.20000
H368        H  0.79775061  0.62412351  0.42252540     0.13300
C369        C  0.73781233  0.76086511  0.13784572     0.17200
C370        C  0.72926917  0.74876860  0.11500166    -0.31800
C371        C  0.74292834  0.73267115  0.10287121     0.21600
C372        C  0.76416587  0.72872017  0.11293382     0.03800
C373        C  0.77270204  0.74079163  0.13582031    -0.21600
C374        C  0.75902870  0.75688147  0.14796144     0.13000
S375        S  0.72392195  0.78118440  0.15550380    -0.05200
C376        C  0.74692733  0.78422155  0.17680431    -0.08700
C377        C  0.76432797  0.77023167  0.17032844    -0.25300
S378        S  0.77818613  0.70870181  0.09486392    -0.02500
C379        C  0.75516086  0.70568501  0.07355048    -0.16000
C380        C  0.73767281  0.71947310  0.08032816    -0.13900
H381        H  0.71272478  0.75180638  0.10696936     0.21400
H382        H  0.78928648  0.73782808  0.14376624     0.17500
H383        H  0.78005181  0.76983611  0.18145559     0.20000
H384        H  0.72202768  0.72005406  0.06903530     0.13300
C385        C  0.74497740  0.75462015  0.34957771     0.17200
C386        C  0.73660957  0.73695446  0.36530872    -0.31800
C387        C  0.74721412  0.73162767  0.39091819     0.21600
C388        C  0.76545581  0.74332613  0.40049229     0.03800
C389        C  0.77384873  0.76111683  0.38472062    -0.21600
C390        C  0.76316053  0.76649216  0.35901162     0.13000
S391        S  0.73410126  0.76354108  0.31819736    -0.05200
C392        C  0.75411608  0.78366476  0.31757232    -0.08700
C393        C  0.76857080  0.78326692  0.34058646    -0.25300
S394        S  0.77610042  0.73384054  0.43196965    -0.02500
C395        C  0.75571806  0.71397197  0.43209587    -0.16000
C396        C  0.74149608  0.71487355  0.40898218    -0.13900
H397        H  0.72239720  0.72773950  0.35788086     0.21400
H398        H  0.78806639  0.77032203  0.39213432     0.17500
H399        H  0.78205770  0.79471149  0.34380021     0.20000
H400        H  0.72785901  0.70366790  0.40537430     0.13300
C401        C  0.66157604  0.55839871  0.05662215     0.17200
C402        C  0.68135070  0.56466757  0.04315010    -0.31800
C403        C  0.68346010  0.58663829  0.03458847     0.21600
C404        C  0.66639831  0.60158155  0.03850826     0.03800
C405        C  0.64663172  0.59530900  0.05204604    -0.21600
C406        C  0.64475487  0.57347330  0.06135575     0.13000
S407        S  0.65593302  0.53261187  0.06889947    -0.05200
C408        C  0.63084137  0.54228065  0.08121834    -0.08700
C409        C  0.62713597  0.56436316  0.07573419    -0.25300
S410        S  0.67244360  0.62760269  0.02725492    -0.02500
C411        C  0.69849581  0.61844888  0.01814705    -0.16000
C412        C  0.70195366  0.59624213  0.02299963    -0.13900
H413        H  0.69468426  0.55301871  0.03997890     0.21400
H414        H  0.63346993  0.60705819  0.05569297     0.17500
H415        H  0.61219985  0.57316442  0.08148294     0.20000
H416        H  0.71744347  0.58774890  0.01917633     0.13300
C417        C  0.31689339  0.39809292  0.42431352     0.17200
C418        C  0.32392615  0.41323408  0.40364101    -0.31800
C419        C  0.34429022  0.42377484  0.40805005     0.21600
C420        C  0.35710435  0.41930685  0.43191906     0.03800
C421        C  0.35011359  0.40409294  0.45252758    -0.21600
C422        C  0.32968230  0.39367300  0.44822202     0.13000
S423        S  0.29247480  0.38409601  0.42319187    -0.05200
C424        C  0.29943096  0.37225808  0.45538937    -0.08700
C425        C  0.31974566  0.37880780  0.46619422    -0.25300
S426        S  0.38092936  0.43424692  0.43387148    -0.02500
C427        C  0.37357931  0.44677785  0.40226363    -0.16000
C428        C  0.35370677  0.43949527  0.39083294    -0.13900
H429        H  0.31383897  0.41683017  0.38512333     0.21400
H430        H  0.36002909  0.40075208  0.47127747     0.17500
H431        H  0.32687929  0.37322859  0.98657115     0.20000
H432        H  0.34631835  0.44571338  0.37139129     0.13300
C433        C  0.51993153  0.49112879  0.99875174     0.17200
C434        C  0.51014670  0.48494569  0.47262871    -0.31800
C435        C  0.49261651  0.49778644  0.46224260     0.21600
C436        C  0.48519212  0.51622664  0.47666615     0.03800
C437        C  0.49500221  0.52244910  0.00251936    -0.21600
C438        C  0.51236801  0.50950287  0.01319975     0.13000
S439        S  0.54087471  0.47737033  0.01565226    -0.05200
C440        C  0.53936039  0.49655983  0.04250246    -0.08700
C441        C  0.52348595  0.51271038  0.03828367    -0.25300
S442        S  0.46304264  0.52898963  0.46099671    -0.02500
C443        C  0.46363742  0.50902968  0.43502234    -0.16000
C444        C  0.48039276  0.49366406  0.43829621    -0.13900
H445        H  0.51571950  0.47045893  0.46136098     0.21400
H446        H  0.48904077  0.53666254  0.01404313     0.17500
H447        H  0.52015697  0.52604605  0.05292179     0.20000
H448        H  0.48308187  0.47978080  0.42431598     0.13300
C449        C  0.51382278  0.51108041  0.22993808     0.17200
C450        C  0.50343837  0.51876992  0.25471788    -0.31800
C451        C  0.48645486  0.50592153  0.26650503     0.21600
C452        C  0.48000812  0.48623764  0.25427980     0.03800
C453        C  0.49040786  0.47851877  0.22943620    -0.21600
C454        C  0.50741181  0.49141927  0.21761063     0.13000
S455        S  0.53492855  0.52421254  0.21253391    -0.05200
C456        C  0.53519447  0.50299159  0.18834523    -0.08700
C457        C  0.51959417  0.48672589  0.19367839    -0.25300
S458        S  0.45889928  0.47324839  0.27200848    -0.02500
C459        C  0.45876514  0.49466222  0.29601495    -0.16000
C460        C  0.47438449  0.51079004  0.29040314    -0.13900
H461        H  0.50838530  0.53411938  0.26441438     0.21400
H462        H  0.48547215  0.46316180  0.21974951     0.17500
H463        H  0.51741943  0.47212116  0.18084734     0.20000
H464        H  0.47671483  0.52544042  0.30310077     0.13300
C465        C  0.82797163  0.09819869  0.04106973     0.17200
C466        C  0.84362462  0.08127290  0.04049003    -0.31800
C467        C  0.85173270  0.07360775  0.06667367     0.21600
C468        C  0.84504010  0.08267162  0.09239234     0.03800
C469        C  0.82926933  0.09958735  0.09299742    -0.21600
C470        C  0.82074700  0.10691212  0.06676492     0.13000
S471        S  0.81560097  0.10920585  0.01157368    -0.05200
C472        C  0.80002391  0.12527509  0.03409499    -0.08700
C473        C  0.80457497  0.12241117  0.06287644    -0.25300
S474        S  0.85713365  0.07096195  0.12175745    -0.02500
C475        C  0.87082927  0.05336650  0.09901430    -0.16000
C476        C  0.86636343  0.05673303  0.07036910    -0.13900
H477        H  0.84898751  0.07412749  0.02050462     0.21400
H478        H  0.82362768  0.10647785  0.11300552     0.17500
H479        H  0.79628848  0.13102626  0.08003090     0.20000
H480        H  0.87345235  0.04725596  0.05309324     0.13300
C481        C  0.81306225  0.41252345  0.30234213     0.17200
C482        C  0.82020671  0.43249622  0.31366864    -0.31800
C483        C  0.84184672  0.43351138  0.32422459     0.21600
C484        C  0.85582391  0.41544338  0.32372551     0.03800
C485        C  0.84883450  0.39554258  0.31173111    -0.21600
C486        C  0.82715669  0.39455505  0.30097254     0.13000
S487        S  0.78692417  0.40770914  0.29028352    -0.05200
C488        C  0.79509881  0.38131415  0.28280150    -0.08700
C489        C  0.81698541  0.37658796  0.28923880    -0.25300
S490        S  0.88130389  0.42007020  0.33845997    -0.02500
C491        C  0.87304823  0.44668669  0.34469643    -0.16000
C492        C  0.85170943  0.45151413  0.33596640    -0.13900
H493        H  0.80926111  0.44656959  0.31456855     0.21400
H494        H  0.85970646  0.38141151  0.31109274     0.17500
H495        H  0.82470269  0.36067459  0.28658986     0.20000
H496        H  0.84389191  0.46744820  0.33790693     0.13300
C497        C  0.63800175  0.41464439  0.17857811     0.17200
C498        C  0.64468943  0.39461142  0.19077833    -0.31800
C499        C  0.66585014  0.39369643  0.20332610     0.21600
C500        C  0.67967449  0.41188373  0.20347748     0.03800
C501        C  0.67284141  0.43189296  0.19186757    -0.21600
C502        C  0.65177788  0.43282893  0.17953255     0.13000
S503        S  0.61333436  0.41931557  0.16148275    -0.05200
C504        C  0.62171945  0.44607706  0.15619177    -0.08700
C505        C  0.64247699  0.45086017  0.16700942    -0.25300
S506        S  0.70525927  0.40730737  0.21750638    -0.02500
C507        C  0.69735850  0.38062154  0.22368974    -0.16000
C508        C  0.67585548  0.37565525  0.21542492    -0.13900
H509        H  0.63403246  0.38033081  0.19016786     0.21400
H510        H  0.68365282  0.44607627  0.19203242     0.17500
H511        H  0.65043853  0.46675493  0.16562111     0.20000
H512        H  0.66838487  0.35954542  0.21695125     0.13300
C513        C  0.76003265  0.25909097  0.35570470     0.17200
C514        C  0.76924996  0.24229018  0.37240044    -0.31800
C515        C  0.75638397  0.23391470  0.39482999     0.21600
C516        C  0.73526204  0.24188900  0.40024078     0.03800
C517        C  0.72603886  0.25860689  0.38350485    -0.21600
C518        C  0.73891693  0.26704407  0.36120007     0.13000
S519        S  0.77299213  0.27155723  0.32773208    -0.05200
C520        C  0.74976216  0.28772048  0.32349468    -0.08700
C521        C  0.73290296  0.28348591  0.34275272    -0.25300
S522        S  0.72231364  0.22981985  0.42844842    -0.02500
C523        C  0.74553641  0.21377632  0.43311015    -0.16000
C524        C  0.76241806  0.21771585  0.41369919    -0.13900
H525        H  0.78575043  0.23609831  0.36816954     0.21400
H526        H  0.70956618  0.26484831  0.38779169     0.17500
H527        H  0.71711429  0.29193112  0.34319753     0.20000
H528        H  0.77821883  0.20928775  0.41348832     0.13300
C529        C  0.76227392  0.24427441  0.10515415     0.17200
C530        C  0.77114128  0.26135828  0.12165651    -0.31800
C531        C  0.75822272  0.26932567  0.14429673     0.21600
C532        C  0.73749837  0.26056729  0.15020535     0.03800
C533        C  0.72875829  0.24346169  0.13390252    -0.21600
C534        C  0.74157322  0.23557552  0.11128893     0.13000
S535        S  0.77492570  0.23254278  0.07637244    -0.05200
C536        C  0.75204241  0.21579904  0.07271220    -0.08700
C537        C  0.73565106  0.21921849  0.09283741    -0.25300
S538        S  0.72422710  0.27231405  0.17826455    -0.02500
C539        C  0.74678752  0.28926535  0.18231288    -0.16000
C540        C  0.76370601  0.28591658  0.16278619    -0.13900
H541        H  0.78729262  0.26821056  0.11695265     0.21400
H542        H  0.71257265  0.23666414  0.13855900     0.17500
H543        H  0.72013149  0.21032933  0.09378253     0.20000
H544        H  0.77913447  0.29497734  0.16227846     0.13300
C545        C  0.31351549  0.08445305  0.20814891     0.17200
C546        C  0.32155131  0.06429398  0.19827305    -0.31800
C547        C  0.34174956  0.06431578  0.18351067     0.21600
C548        C  0.35348539  0.08352457  0.17871225     0.03800
C549        C  0.34553303  0.10369364  0.18883950    -0.21600
C550        C  0.32533653  0.10367325  0.20370962     0.13000
S551        S  0.28873001  0.08801071  0.22502423    -0.05200
C552        C  0.29435264  0.11569215  0.22624884    -0.08700
C553        C  0.31451659  0.12166624  0.21440423    -0.25300
S554        S  0.37767765  0.07993501  0.16025498    -0.02500
C555        C  0.37197485  0.05224732  0.15929540    -0.16000
C556        C  0.35227437  0.04635005  0.17245150    -0.13900
H557        H  0.31234905  0.04926353  0.20169826     0.21400
H558        H  0.35460952  0.11875484  0.18513475     0.17500
H559        H  0.32041531  0.13838141  0.21245407     0.20000
H560        H  0.34612057  0.02970809  0.17420014     0.13300
C561        C  0.64663950  0.91290477  0.32445712     0.17200
C562        C  0.65483227  0.89233264  0.31613629    -0.31800
C563        C  0.67443067  0.89184240  0.29998203     0.21600
C564        C  0.68557239  0.91096107  0.29276792     0.03800
C565        C  0.67724969  0.93152888  0.30078590    -0.21600
C566        C  0.65751106  0.93202226  0.31661194     0.13000
S567        S  0.62324815  0.91708267  0.34440473    -0.05200
C568        C  0.62795281  0.94489150  0.34165679    -0.08700
C569        C  0.64677574  0.95040236  0.32622503    -0.25300
S570        S  0.70962912  0.90681928  0.27430014    -0.02500
C571        C  0.70439538  0.87904911  0.27575833    -0.16000
C572        C  0.68505451  0.87347269  0.29000943    -0.13900
H573        H  0.64633705  0.87735541  0.32205906     0.21400
H574        H  0.68583430  0.94650114  0.29503876     0.17500
H575        H  0.65240124  0.96702504  0.32240834     0.20000
H576        H  0.67939548  0.85682992  0.29355457     0.13300
C577        C  0.66514362  0.10187396  0.45911746     0.17200
C578        C  0.64512686  0.09430125  0.44743484    -0.31800
C579        C  0.64495686  0.07325412  0.43521213     0.21600
C580        C  0.66376426  0.06016770  0.43512301     0.03800
C581        C  0.68378244  0.06780036  0.44654152    -0.24800
C582        C  0.68404938  0.08895966  0.45828174     0.13000
S583        S  0.66909225  0.12713519  0.47428690    -0.05200
C584        C  0.69662096  0.12040169  0.47882124    -0.08700
C585        C  0.70213459  0.09953638  0.46938080    -0.25300
S586        S  0.66001092  0.03485182  0.42031708    -0.02500
C587        C  0.63291364  0.04207456  0.41361219    -0.16000
C588        C  0.62722586  0.06302251  0.42256078    -0.13900
H589        H  0.63038168  0.10443132  0.44765865     0.21400
H590        H  0.69856647  0.05772329  0.44613382     0.17500
H591        H  0.71866248  0.09262115  0.47009303     0.20000
H592        H  0.61086314  0.07015750  0.42054017     0.13300
C593        C  0.51804433  0.98493370  0.49180705     0.17200
C594        C  0.50728996  0.97774978  0.01621731    -0.31800
C595        C  0.49119833  0.99154497  0.02825437     0.21600
C596        C  0.48616155  0.01179565  0.01638914     0.03800
C597        C  0.49694623  0.01900950  0.49187396    -0.21600
C598        C  0.51314267  0.00523656  0.48000963     0.13000
S599        S  0.53841159  0.97079243  0.47432339    -0.05200
C600        C  0.54044953  0.99253351  0.45099642    -0.08700
C601        C  0.52593485  0.00967302  0.45657622    -0.25300
S602        S  0.46616566  0.02609108  0.03430556    -0.02500
C603        C  0.46467325  0.00460841  0.05812147    -0.16000
C604        C  0.47890914  0.98732867  0.05221131    -0.13900
H605        H  0.51117106  0.96195844  0.02557583     0.21400
H606        H  0.49320473  0.03486314  0.48259309     0.17500
H607        H  0.52485501  0.02464577  0.44417895     0.20000
H608        H  0.48018998  0.97245643  0.06477648     0.13300
C609        C  0.51828317  0.01182687  0.26685634     0.17200
C610        C  0.50920662  0.01880939  0.24090452    -0.31800
C611        C  0.49059632  0.00753987  0.23066615     0.21600
C612        C  0.48126688  0.99019819  0.24561491     0.03800
C613        C  0.49018451  0.98338615  0.27174463    -0.21600
C614        C  0.50892818  0.99452282  0.28185598     0.13000
S615        S  0.54147442  0.02264883  0.28227728    -0.05200
C616        C  0.53866104  0.00347649  0.30902302    -0.08700
C617        C  0.52049786  0.98973498  0.30615750    -0.25300
S618        S  0.45897241  0.97841895  0.22918153    -0.02500
C619        C  0.46224474  0.99714781  0.20198476    -0.16000
C620        C  0.47970154  0.01163674  0.20566340    -0.13900
H621        H  0.51652001  0.03221724  0.22900153     0.21400
H622        H  0.48305049  0.96978600  0.28345592     0.17500
H623        H  0.51624724  0.97662444  0.32078937     0.20000
H624        H  0.48421142  0.02448439  0.19076742     0.13300
C625        C  0.15880530  0.91681053  0.41488136     0.17200
C626        C  0.17662094  0.90208146  0.41543701    -0.31800
C627        C  0.18321816  0.89379948  0.44204228     0.21600
C628        C  0.17243091  0.89966518  0.46702714     0.03800
C629        C  0.15476409  0.91461101  0.46651529    -0.21600
C630        C  0.14833880  0.92310954  0.43991831     0.13000
S631        S  0.14820170  0.92859923  0.38472324    -0.05200
C632        C  0.12975581  0.94248725  0.40611954    -0.08700
C633        C  0.13177661  0.93802490  0.43502576    -0.25300
S634        S  0.18279072  0.88740304  0.49705224    -0.02500
C635        C  0.20211657  0.87462174  0.47572650    -0.16000
C636        C  0.20034602  0.87956175  0.44693778    -0.13900
H637        H  0.18501515  0.89731427  0.39597775     0.21400
H638        H  0.14643018  0.91944933  0.48598773     0.17500
H639        H  0.12159009  0.94526024  0.45156135     0.20000
H640        H  0.21103912  0.87303866  0.43042905     0.13300
C641        C  0.32382078  0.89948215  0.07397376     0.17200
C642        C  0.33423829  0.91134554  0.09570850    -0.31800
C643        C  0.35069533  0.92632448  0.08774532     0.21600
C644        C  0.35643147  0.92950576  0.05937682     0.03800
C645        C  0.34627088  0.91733919  0.03763941    -0.21600
C646        C  0.32988494  0.90221768  0.04563707     0.13000
S647        S  0.30292900  0.88117029  0.07928968    -0.05200
C648        C  0.30256418  0.87679571  0.04299634    -0.08700
C649        C  0.31784237  0.88903517  0.02769352    -0.25300
S650        S  0.37598661  0.94930779  0.05410121    -0.02500
C651        C  0.37665862  0.95300579  0.09053422    -0.16000
C652        C  0.36243811  0.93960165  0.10577883    -0.13900
H653        H  0.32955001  0.90916743  0.11782765     0.21400
H654        H  0.35075524  0.91972849  0.01548870     0.17500
H655        H  0.31946144  0.88864679  0.50500885     0.20000
H656        H  0.36044134  0.93991913  0.12873280     0.13300
C657        C  0.15953939  0.55865696  0.18601598     0.17200
C658        C  0.17804073  0.56562235  0.20157705    -0.31800
C659        C  0.17935575  0.58791321  0.20865143     0.21600
C660        C  0.16283201  0.60259708  0.20096459     0.03800
C661        C  0.14448897  0.59568572  0.18496547    -0.21600
C662        C  0.14333105  0.57343007  0.17751094     0.13000
S663        S  0.15462804  0.53220688  0.17610890    -0.05200
C664        C  0.13075735  0.54119032  0.15971484    -0.08700
C665        C  0.12685018  0.56351303  0.16204394    -0.25300
S666        S  0.16737363  0.62888929  0.21213820    -0.02500
C667        C  0.19200511  0.62006872  0.22672504    -0.16000
C668        C  0.19626162  0.59789814  0.22315878    -0.13900
H669        H  0.19084644  0.55415621  0.20792325     0.21400
H670        H  0.13169341  0.60715031  0.17859805     0.17500
H671        H  0.11248040  0.57190268  0.15351060     0.20000
H672        H  0.21105183  0.58958346  0.23056518     0.13300
C673        C  0.34092581  0.58167535  0.34282166     0.17200
C674        C  0.32310742  0.59641482  0.34447032    -0.31800
C675        C  0.31529572  0.60551735  0.31882527     0.21600
C676        C  0.32502511  0.60050646  0.29282086     0.03800
C677        C  0.34280361  0.58586060  0.29120340    -0.21600
C678        C  0.35032625  0.57647043  0.31669300     0.13000
S679        S  0.35229031  0.56792020  0.37112802    -0.05200
C680        C  0.36942415  0.55469591  0.34726484    -0.08700
C681        C  0.36663128  0.56104065  0.31911839    -0.25300
S682        S  0.31312690  0.61302522  0.26409932    -0.02500
C683        C  0.29462876  0.62497252  0.28725529    -0.16000
C684        C  0.29770851  0.61953481  0.31573751    -0.13900
H685        H  0.31542560  0.60029491  0.36472300     0.21400
H686        H  0.35019063  0.58164265  0.27088134     0.17500
H687        H  0.37573417  0.55432024  0.30122898     0.20000
H688        H  0.28756005  0.62542657  0.33318106     0.13300
C689        C  0.23424222  0.73162748  0.37284077     0.17200
C690        C  0.22781477  0.74199542  0.39820863    -0.31800
C691        C  0.24207696  0.75797259  0.40947998     0.21600
C692        C  0.26186553  0.76339403  0.39618138     0.03800
C693        C  0.26818154  0.75317560  0.37071202    -0.21600
C694        C  0.25392279  0.73724826  0.35941930     0.13000
S695        S  0.21956730  0.71147293  0.35591993    -0.05200
C696        C  0.24013306  0.71075642  0.33045729    -0.08700
C697        C  0.25731807  0.72541973  0.33503503    -0.25300
S698        S  0.27686768  0.78317998  0.41328432    -0.02500
C699        C  0.25612364  0.78438365  0.43843050    -0.16000
C700        C  0.23869598  0.76998563  0.43374804    -0.13900
H701        H  0.21241751  0.73776177  0.40873789     0.21400
H702        H  0.28356966  0.75742217  0.36017178     0.17500
H703        H  0.27168904  0.72717665  0.32136780     0.20000
H704        H  0.22417044  0.76858452  0.44721152     0.13300
C705        C  0.23490558  0.74117797  0.15418917     0.17200
C706        C  0.22668275  0.75755377  0.13606698    -0.31800
C707        C  0.24061045  0.76506160  0.11423238     0.21600
C708        C  0.26182951  0.75672318  0.11070283     0.03800
C709        C  0.27010163  0.74045559  0.12894903    -0.21600
C710        C  0.25612775  0.73283950  0.15067272     0.13000
S711        S  0.22042463  0.72959241  0.18151742    -0.05200
C712        C  0.24313695  0.71323746  0.18819464    -0.08700
C713        C  0.26098647  0.71678975  0.17021306    -0.25300
S714        S  0.27608700  0.76784628  0.08283755    -0.02500
C715        C  0.25325513  0.78395204  0.07591366    -0.16000
C716        C  0.23558110  0.78074130  0.09429181    -0.13900
H717        H  0.21009877  0.76404068  0.13874335     0.21400
H718        H  0.28664728  0.73390007  0.12618915     0.17500
H719        H  0.27658697  0.70803741  0.17127613     0.20000
H720        H  0.21994332  0.78942670  0.09315254     0.13300
O721        O  0.27601703  0.64590169  0.75148627    -0.56600
C722        C  0.24316832  0.69677781  0.71119247     0.76100
O723        O  0.20280743  0.65340524  0.74995453    -0.57700
C724        C  0.27699055  0.63926179  0.77713493     0.76000
C725        C  0.23992432  0.69541684  0.80614736     0.78400
Cd726      Cd  0.24132568  0.66637058  0.75807984     1.37500
O727        O  0.25953129  0.68435022  0.71644192    -0.56600
O728        O  0.25470075  0.69654267  0.78705958    -0.55400
C729        C  0.20845111  0.63511324  0.73945355     0.78400
O730        O  0.22518703  0.68074877  0.80307566    -0.57700
O731        O  0.22644460  0.69475355  0.72715053    -0.56200
O732        O  0.26166419  0.64538226  0.79376235    -0.56200
O733        O  0.22891969  0.63086957  0.73917728    -0.55400
O734        O  0.28828966  0.85459115  0.50479863    -0.56600
C735        C  0.25634374  0.80017058  0.96200556     0.76100
O736        O  0.23650726  0.81256695  0.54802195    -0.57700
C737        C  0.28656665  0.86141794  0.53026672     0.76000
C738        C  0.21971710  0.86003926  0.98704079     0.78400
Cd739      Cd  0.25411971  0.83152409  0.50752470     1.37500
O740        O  0.27246471  0.81313662  0.96640179    -0.56600
O741        O  0.21866822  0.85169283  0.01178542    -0.55400
C742        C  0.25285928  0.79988795  0.55243437     0.78400
O743        O  0.23657099  0.85527670  0.97228971    -0.57700
O744        O  0.23996547  0.80166502  0.97874406    -0.56200
O745        O  0.27021420  0.85449994  0.54444156    -0.56200
O746        O  0.26934038  0.80179816  0.53591788    -0.55400
O747        O  0.56903078  0.97731708  0.92095837    -0.56600
C748        C  0.61347477  0.96172434  0.85461250     0.76100
O749        O  0.57107015  0.01451792  0.83529202    -0.57700
C750        C  0.55629948  0.99328053  0.92679071     0.76000
C751        C  0.61719253  0.02682214  0.90092792     0.78400
Cd752      Cd  0.58564123  0.99564130  0.87841439     1.37500
O753        O  0.59921765  0.95713881  0.87363887    -0.56600
O754        O  0.62034421  0.00633751  0.90211104    -0.55400
C755        C  0.55500923  0.00135444  0.83201392     0.78400
O756        O  0.59966060  0.03317889  0.88855545    -0.57700
O757        O  0.61452536  0.98156905  0.84673895    -0.56200
O758        O  0.55758704  0.00988657  0.91073794    -0.56200
O759        O  0.55346813  0.98583815  0.84979949    -0.55400
O760        O  0.43269364  0.98387435  0.67235836    -0.56600
C761        C  0.39052964  0.96966496  0.60415391     0.76100
O762        O  0.40446175  0.04115813  0.63420432    -0.57700
C763        C  0.44722143  0.99837928  0.67733547     0.76000
C764        C  0.44898301  0.00442275  0.58247170     0.78400
Cd765      Cd  0.41818181  0.00269689  0.62899860     1.37500
O766        O  0.39581925  0.96879472  0.63032864    -0.56600
O767        O  0.44801745  0.98821905  0.59937545    -0.55400
C768        C  0.38709875  0.03579262  0.64771159     0.78400
O769        O  0.43591022  0.02031488  0.58737965    -0.57700
O770        O  0.39798980  0.98563790  0.58986009    -0.56200
O771        O  0.44829560  0.01419635  0.65996888    -0.56200
O772        O  0.38390288  0.01551148  0.65129833    -0.55400
O773        O  0.70840266  0.34817658  0.74933312    -0.56600
C774        C  0.74849761  0.30422710  0.80042503     0.76100
O775        O  0.76383816  0.31829440  0.70914396    -0.57700
C776        C  0.71381236  0.36441907  0.73383769     0.76000
C777        C  0.77955366  0.36502573  0.77225912     0.78400
Cd778      Cd  0.74720959  0.33424272  0.75315885     1.37500
O779        O  0.73160080  0.31629259  0.79655077    -0.56600
O780        O  0.75934685  0.36625865  0.77926435    -0.55400
C781        C  0.74786693  0.30505549  0.70551811     0.78400
O782        O  0.78519196  0.34927570  0.75611915    -0.57700
O783        O  0.76437644  0.30666846  0.78318566    -0.56200
O784        O  0.73412316  0.36639716  0.72773494    -0.56200
O785        O  0.73214816  0.30600205  0.72324009    -0.55400
O786        O  0.78179698  0.14635673  0.49810504    -0.56600
C787        C  0.74688222  0.19802819  0.95663932     0.76100
O788        O  0.70877652  0.15279299  0.00469579    -0.57700
C789        C  0.78220267  0.13960204  0.52373745     0.76000
C790        C  0.75017384  0.19927630  0.54961500     0.78400
Cd791      Cd  0.74749451  0.16806282  0.00420559     1.37500
O792        O  0.76373928  0.18606340  0.96108082    -0.56600
O793        O  0.76523457  0.19724587  0.53104789    -0.55400
C794        C  0.71346487  0.13638754  0.98919855     0.78400
O795        O  0.73348676  0.18668991  0.54729141    -0.57700
O796        O  0.73077423  0.19563625  0.97355509    -0.56200
O797        O  0.76664858  0.14589885  0.53990449    -0.56200
O798        O  0.73350406  0.13446387  0.98180938    -0.55400
O799        O  0.42907867  0.48142756  0.82572413    -0.56600
C800        C  0.38713813  0.46451419  0.89005791     0.76100
O801        O  0.43180519  0.52103854  0.90888518    -0.57700
C802        C  0.44343971  0.49603926  0.82028588     0.76000
C803        C  0.38464946  0.53669916  0.85549742     0.78400
Cd804      Cd  0.41412396  0.50072390  0.86888503     1.37500
O805        O  0.38351660  0.47266507  0.86565613    -0.56600
O806        O  0.39265699  0.52402975  0.83686514    -0.55400
C807        C  0.44706942  0.50694158  0.91231793     0.78400
O808        O  0.39026147  0.53304444  0.88109414    -0.57700
O809        O  0.40307094  0.47265700  0.90378852    -0.56200
O810        O  0.44397413  0.51228591  0.83698684    -0.56200
O811        O  0.44704360  0.49068814  0.89556565    -0.55400
O812        O  0.59832043  0.53427445  0.60951633    -0.56600
C813        C  0.55092577  0.50163941  0.66401175     0.76100
O814        O  0.56746722  0.48051434  0.57216282    -0.57700
C815        C  0.61434299  0.52731129  0.59446766     0.76000
C816        C  0.60785689  0.46261772  0.64229420     0.78400
Cd817      Cd  0.58168035  0.49708017  0.61716109     1.37500
O818        O  0.56587943  0.51595825  0.65988495    -0.56600
O819        O  0.61147194  0.48278127  0.64670319    -0.55400
C820        C  0.55380523  0.49593614  0.56746697     0.78400
O821        O  0.59204281  0.45793822  0.62554849    -0.57700
O822        O  0.55023056  0.48591885  0.64649515    -0.56200
O823        O  0.61554644  0.50676868  0.59104684    -0.56200
O824        O  0.55308889  0.51116924  0.58569198    -0.55400
O825        O  0.78466072  0.63970301  0.00524219    -0.56600
C826        C  0.75438209  0.69047856  0.54910323     0.76100
O827        O  0.73856303  0.68345712  0.95554991    -0.57700
C828        C  0.78600579  0.63452906  0.97908916     0.76000
C829        C  0.71622581  0.63358410  0.50989254     0.78400
Cd830      Cd  0.75211001  0.66396394  0.49849881     1.37500
O831        O  0.77069142  0.67861595  0.54189050    -0.56600
O832        O  0.73633639  0.62845454  0.51312192    -0.55400
C833        C  0.75441506  0.69712228  0.95457147     0.78400
O834        O  0.71240581  0.65261138  0.50016584    -0.57700
O835        O  0.73727151  0.68928125  0.53368678    -0.56200
O836        O  0.77225580  0.64343397  0.96228530    -0.56200
O837        O  0.76903837  0.69542882  0.97375153    -0.55400
O838        O  0.71435104  0.84333699  0.75893676    -0.56600
C839        C  0.74789169  0.79977121  0.70043533     0.76100
O840        O  0.78825305  0.84938056  0.74814646    -0.57700
C841        C  0.72025223  0.86270455  0.76490005     0.76000
C842        C  0.75458051  0.80001612  0.79443201     0.78400
Cd843      Cd  0.75221509  0.82991120  0.74681949     1.37500
O844        O  0.73299363  0.81412384  0.70475623    -0.56600
O845        O  0.73916211  0.80018340  0.77629208    -0.55400
C846        C  0.78787235  0.85430706  0.72177711     0.78400
O847        O  0.76982659  0.81413815  0.79109264    -0.57700
O848        O  0.76413431  0.79957410  0.71747374    -0.56200
O849        O  0.74045302  0.86717173  0.76111614    -0.56200
O850        O  0.77145700  0.84761192  0.70746992    -0.55400
O851        O  0.89398740  0.03521475  0.63357340    -0.56600
C852        C  0.94785540  0.00203108  0.66981665     0.76100
O853        O  0.89256560  0.98259890  0.66046823    -0.57700
C854        C  0.88549737  0.03552045  0.60887929     0.76000
C855        C  0.94610313  0.00074992  0.57769284     0.78400
Cd856      Cd  0.91558829  0.00082346  0.62498550     1.37500
O857        O  0.93504169  0.01818609  0.66539812    -0.56600
O858        O  0.94592234  0.01563863  0.59645322    -0.55400
C859        C  0.88762268  0.96579849  0.64612118     0.78400
O860        O  0.93210113  0.98536875  0.58065945    -0.57700
O861        O  0.94601452  0.98581088  0.65315719    -0.56200
O862        O  0.89065525  0.01991811  0.59246082    -0.56200
O863        O  0.89513039  0.96498937  0.62086833    -0.55400
O864        O  0.10741251  0.95776582  0.86882003    -0.56600
C865        C  0.05075606  0.98577319  0.82858195     0.76100
O866        O  0.06409034  0.00868145  0.91423867    -0.57700
C867        C  0.11384357  0.95815971  0.89452910     0.76000
C868        C  0.10960310  0.02461891  0.84842159     0.78400
Cd869      Cd  0.08267363  0.99031368  0.87328924     1.37500
O870        O  0.06417805  0.97021831  0.83375464    -0.56600
O871        O  0.10447248  0.00725575  0.83539744    -0.55400
C872        C  0.05047805  0.99307639  0.91829662     0.78400
O873        O  0.10261399  0.02640041  0.87385516    -0.57700
O874        O  0.05186754  0.00244109  0.84455545    -0.56200
O875        O  0.10585636  0.97311064  0.91007529    -0.56200
O876        O  0.05214405  0.97663987  0.90196415    -0.55400
O877        O  0.28229810  0.15150995  0.74131674    -0.56600
C878        C  0.24443389  0.19548951  0.79212841     0.76100
O879        O  0.22407042  0.18026780  0.70484795    -0.57700
C880        C  0.27749175  0.13177630  0.73568521     0.76000
C881        C  0.20877655  0.13590563  0.76973741     0.78400
Cd882      Cd  0.24317708  0.16356774  0.74731842     1.37500
O883        O  0.26045249  0.18225592  0.78865094    -0.56600
O884        O  0.22193250  0.14667191  0.78537170    -0.55400
C885        C  0.24096642  0.19116847  0.69720646     0.78400
O886        O  0.21091359  0.13825483  0.74292544    -0.57700
O887        O  0.22838408  0.19389418  0.77495282    -0.56200
O888        O  0.25727027  0.12665333  0.73706238    -0.56200
O889        O  0.25832330  0.18836261  0.71173081    -0.55400
O890        O  0.23540894  0.31103689  0.95502519    -0.56600
C891        C  0.21902571  0.35900719  0.51483383     0.76100
O892        O  0.27089890  0.31258181  0.53956222    -0.57700
C893        C  0.25115162  0.29748664  0.95160344     0.76000
C894        C  0.28447089  0.35692576  0.97028603     0.78400
Cd895      Cd  0.25270929  0.32857598  0.99683949     1.37500
O896        O  0.21399948  0.34126487  0.50240619    -0.56600
O897        O  0.26613271  0.35196979  0.95895468    -0.55400
C898        C  0.25439561  0.30055064  0.54575972     0.78400
O899        O  0.28862554  0.34855133  0.99457723    -0.57700
O900        O  0.23942984  0.36312617  0.51777607    -0.56200
O901        O  0.26687240  0.29816941  0.96939948    -0.56200
O902        O  0.23770770  0.30198949  0.52962925    -0.55400
O903        O  0.89702846  0.53182757  0.86639042    -0.56600
C904        C  0.94799048  0.49506199  0.82353681     0.76100
O905        O  0.93598937  0.48348467  0.91586247    -0.57700
C906        C  0.88858011  0.53078209  0.89118879     0.76000
C907        C  0.88832870  0.46358483  0.85544496     0.78400
Cd908      Cd  0.91861979  0.49736384  0.87177683     1.37500
O909        O  0.93698189  0.51244620  0.82831263    -0.56600
O910        O  0.88526000  0.48356490  0.84940705    -0.55400
C911        C  0.94999546  0.49898215  0.91732281     0.78400
O912        O  0.90509838  0.45899313  0.87058530    -0.57700
O913        O  0.94516338  0.47933651  0.84070442    -0.56200
O914        O  0.89424028  0.51465659  0.90659990    -0.56200
O915        O  0.94920440  0.51347287  0.89800397    -0.55400
O916        O  0.06672894  0.47791532  0.66254783    -0.56600
C917        C  0.11764376  0.46463332  0.59964884     0.76100
O918        O  0.06944946  0.51169400  0.57717409    -0.57700
C919        C  0.05434663  0.49449696  0.66658029     0.76000
C920        C  0.11553503  0.52607291  0.64574477     0.78400
Cd921      Cd  0.08583349  0.49504601  0.62093764     1.37500
O922        O  0.10249251  0.45812996  0.61648925    -0.56600
O923        O  0.11571031  0.50592011  0.65225218    -0.55400
C924        C  0.05672717  0.49541766  0.57291729     0.78400
O925        O  0.10156674  0.53221985  0.62708062    -0.57700
O926        O  0.11783759  0.48478255  0.59317049    -0.56200
O927        O  0.05677146  0.51052227  0.64974045    -0.56200
O928        O  0.05808269  0.47961095  0.59028191    -0.55400
C929        C  0.99674962  0.50883917  0.97093714     0.17200
C930        C  0.01505443  0.51666561  0.98624785    -0.31800
C931        C  0.02179771  0.50490287  0.50997716     0.21600
C932        C  0.01099697  0.48578468  0.51807776     0.03800
C933        C  0.99285497  0.47783312  0.50268613    -0.21600
C934        C  0.98582463  0.48985480  0.97926706     0.13000
S935        S  0.98596187  0.52100633  0.94127738    -0.05200
C936        C  0.96663330  0.50022914  0.94005940    -0.08700
C937        C  0.96848884  0.48482654  0.96163362    -0.25300
S938        S  0.02151325  0.47360883  0.54776767    -0.02500
C939        C  0.04063575  0.49451600  0.54951827    -0.16000
C940        C  0.03892256  0.51004401  0.52802484    -0.13900
H941        H  0.02359917  0.53148863  0.97980098     0.21400
H942        H  0.98441055  0.46293592  0.50907663     0.17500
H943        H  0.95784441  0.47065073  0.96415634     0.20000
H944        H  0.04947205  0.52431931  0.52585963     0.13300
C945        C  0.01003169  0.50647844  0.72282228     0.17200
C946        C  0.99391565  0.51616284  0.74022493    -0.31800
C947        C  0.98448846  0.50321552  0.76171555     0.21600
C948        C  0.99079735  0.48153063  0.76565369     0.03800
C949        C  0.00693850  0.47181263  0.74820323    -0.21600
C950        C  0.01644720  0.48481929  0.72674661     0.13000
S951        S  0.02334458  0.51958200  0.69573147    -0.05200
C952        C  0.03784849  0.49571348  0.68956966    -0.08700
C953        C  0.03252659  0.47851123  0.70768585    -0.25300
S954        S  0.97762530  0.46872623  0.79321001    -0.02500
C955        C  0.96357646  0.49288339  0.79957992    -0.16000
C956        C  0.96881089  0.50982260  0.78107735    -0.13900
H957        H  0.98900946  0.53310393  0.73721329     0.21400
H958        H  0.01194567  0.45491332  0.75132481     0.17500
H959        H  0.03993270  0.46233564  0.70689551     0.20000
H960        H  0.96178124  0.52615816  0.78200296     0.13300
C961        C  0.16555831  0.43348586  0.56511170     0.17200
C962        C  0.18530953  0.42723777  0.55172384    -0.31800
C963        C  0.18759813  0.40517532  0.54396403     0.21600
C964        C  0.17084420  0.39005913  0.54892523     0.03800
C965        C  0.15125549  0.39623451  0.56279731    -0.21600
C966        C  0.14908340  0.41824182  0.57092866     0.13000
S967        S  0.15927208  0.45960031  0.57512347    -0.05200
C968        C  0.13438887  0.44981842  0.58780956    -0.08700
C969        C  0.13121373  0.42749194  0.58438104    -0.25300
S970        S  0.17659390  0.36419455  0.53722053    -0.02500
C971        C  0.20203292  0.37373565  0.52625193    -0.16000
C972        C  0.20568391  0.39582852  0.53120929    -0.13900
H973        H  0.19828155  0.43907305  0.54743914     0.21400
H974        H  0.13825362  0.38441744  0.56698700     0.17500
H975        H  0.11639174  0.41867400  0.59057551     0.20000
H976        H  0.22079441  0.40451894  0.52591247     0.13300
C977        C  0.26134356  0.26206743  0.61013509     0.17200
C978        C  0.26888747  0.24962429  0.63332670    -0.31800
C979        C  0.25440349  0.23393569  0.64487047     0.21600
C980        C  0.23324353  0.23083875  0.63410299     0.03800
C981        C  0.22568172  0.24331082  0.61093110    -0.21600
C982        C  0.24024119  0.25886905  0.59922676     0.13000
S983        S  0.27652510  0.28159678  0.59257322    -0.05200
C984        C  0.25424369  0.28532432  0.57016085    -0.08700
C985        C  0.23608915  0.27218584  0.57634627    -0.25300
S986        S  0.21821006  0.21106369  0.65144382    -0.02500
C987        C  0.24078444  0.20682983  0.67324006    -0.16000
C988        C  0.25881362  0.22017907  0.66722256    -0.13900
H989        H  0.28538837  0.25194866  0.64188398     0.21400
H990        H  0.20921927  0.24091561  0.60228554     0.17500
H991        H  0.22070190  0.27217876  0.56445249     0.20000
H992        H  0.27432577  0.21998906  0.67884200     0.13300
C993        C  0.23518750  0.23989594  0.84853693     0.17200
C994        C  0.22673834  0.25648627  0.86610187    -0.31800
C995        C  0.24002695  0.26358680  0.88876528     0.21600
C996        C  0.26082333  0.25461177  0.89363443     0.03800
C997        C  0.26932570  0.23815833  0.87595827    -0.21600
C998        C  0.25601525  0.23099159  0.85338561     0.13000
S999        S  0.22148409  0.22871813  0.82032501    -0.05200
C1000       C  0.24405155  0.21188277  0.81501634    -0.08700
C1001       C  0.26122348  0.21489319  0.83416441    -0.25300
S1002       S  0.27427136  0.26511503  0.92242830    -0.02500
C1003       C  0.25166260  0.28178088  0.92801302    -0.16000
C1004       C  0.23468004  0.27932054  0.90843935    -0.13900
H1005       H  0.21046184  0.26342408  0.86239922     0.21400
H1006       H  0.28554186  0.23112205  0.87978214     0.17500
H1007       H  0.27659805  0.20571860  0.83413386     0.20000
H1008       H  0.21928155  0.28845591  0.90866747     0.13300
C1009       C  0.14372810  0.06390053  0.80172646     0.17200
C1010       C  0.15513059  0.07444955  0.77948444    -0.31800
C1011       C  0.16808451  0.09279023  0.78646599     0.21600
C1012       C  0.16955064  0.10024412  0.81434971     0.03800
C1013       C  0.15794701  0.08987046  0.83648584    -0.21600
C1014       C  0.14503925  0.07154172  0.82953582     0.13000
S1015       S  0.12792373  0.04089643  0.79791838    -0.05200
C1016       C  0.12297793  0.04160691  0.83416006    -0.08700
C1017       C  0.13301348  0.05891307  0.84824775    -0.25300
S1018       S  0.18690103  0.12200176  0.81882768    -0.02500
C1019       C  0.19223635  0.12122810  0.78273564    -0.16000
C1020       C  0.18098199  0.10490837  0.76809195    -0.13900
H1021       H  0.15421203  0.06842636  0.75779999     0.21400
H1022       H  0.15921141  0.09563460  0.85826041     0.17500
H1023       H  0.13195295  0.06182382  0.87098909     0.20000
H1024       H  0.18266237  0.10168025  0.74548501     0.13300
C1025       C  0.99063809  0.01018526  0.52043363     0.17200
C1026       C  0.00836175  0.01789562  0.50383677    -0.31800
C1027       C  0.01452757  0.00544609  0.97971191     0.21600
C1028       C  0.00335827  0.98633764  0.97258205     0.03800
C1029       C  0.98549501  0.97879490  0.98902041    -0.21600
C1030       C  0.97938504  0.99117344  0.51309558     0.13000
S1031       S  0.98124978  0.02234142  0.55088597    -0.05200
C1032       C  0.96194986  0.00160942  0.55380922    -0.08700
C1033       C  0.96283728  0.98618432  0.53213908    -0.25300
S1034       S  0.01372002  0.97319747  0.94340509    -0.02500
C1035       C  0.03336250  0.99360758  0.94068768    -0.16000
C1036       C  0.03172184  0.00981159  0.96132465    -0.13900
H1037       H  0.01722867  0.03267542  0.50963368     0.21400
H1038       H  0.97684733  0.96382229  0.98351321     0.17500
H1039       H  0.95208354  0.97202014  0.53052065     0.20000
H1040       H  0.04272588  0.02377497  0.96307910     0.13300
C1041       C  0.98485136  0.00772983  0.73573962     0.17200
C1042       C  0.99512555  0.01423955  0.76108395    -0.31800
C1043       C  0.00977727  0.99941533  0.77397203     0.21600
C1044       C  0.01424521  0.97904257  0.76216637     0.03800
C1045       C  0.00388582  0.97247600  0.73680957    -0.21600
C1046       C  0.98908029  0.98728060  0.72398854     0.13000
S1047       S  0.96617084  0.02320572  0.71719504    -0.05200
C1048       C  0.96376290  0.00178172  0.69353235    -0.08700
C1049       C  0.97703327  0.98379690  0.69967583    -0.25300
S1050       S  0.03319697  0.96384298  0.78084373    -0.02500
C1051       C  0.03498786  0.98522959  0.80472496    -0.16000
C1052       C  0.02147000  0.00295882  0.79844850    -0.13900
H1053       H  0.99181354  0.03015650  0.77039906     0.21400
H1054       H  0.00720269  0.95656263  0.72749455     0.17500
H1055       H  0.97748286  0.96879223  0.68734110     0.20000
H1056       H  0.02066577  0.01795276  0.81078438     0.13300
C1057       C  0.85463492  0.92420726  0.69040114     0.17200
C1058       C  0.84429886  0.91249159  0.71239990    -0.31800
C1059       C  0.83058225  0.89494750  0.70477989     0.21600
C1060       C  0.82727675  0.88928208  0.67644372     0.03800
C1061       C  0.83804943  0.90071315  0.65439162    -0.21600
C1062       C  0.85179488  0.91833949  0.66204720     0.13000
S1063       S  0.87082904  0.94671790  0.69545180    -0.05200
C1064       C  0.87418606  0.94822570  0.65901512    -0.08700
C1065       C  0.86322128  0.93198964  0.64383182    -0.25300
S1066       S  0.80842723  0.86873256  0.67164139    -0.02500
C1067       C  0.80512062  0.86775568  0.70818270    -0.16000
C1068       C  0.81818495  0.88242087  0.72311813    -0.13900
H1069       H  0.84644427  0.91719286  0.73450220     0.21400
H1070       H  0.83539995  0.89640852  0.63224441     0.17500
H1071       H  0.86325420  0.93052997  0.62080776     0.20000
H1072       H  0.81774597  0.88460788  0.74604029     0.13300
C1073       C  0.84569170  0.57519577  0.90936777     0.17200
C1074       C  0.82965540  0.59182418  0.90915603    -0.31800
C1075       C  0.82171140  0.59925902  0.93556010     0.21600
C1076       C  0.82938005  0.59062378  0.96110236     0.03800
C1077       C  0.84519776  0.57378260  0.96130864    -0.21600
C1078       C  0.85308746  0.56628669  0.93488549     0.13000
S1079       S  0.85783829  0.56424189  0.87964382    -0.05200
C1080       C  0.87285369  0.54731626  0.90184526    -0.08700
C1081       C  0.86851289  0.55012959  0.93067073    -0.25300
S1082       S  0.81788663  0.60222531  0.99083368    -0.02500
C1083       C  0.80245598  0.61871371  0.96853724    -0.16000
C1084       C  0.80616422  0.61528430  0.93970554    -0.13900
H1085       H  0.82371018  0.59874653  0.88929541     0.21400
H1086       H  0.85116064  0.56688465  0.98117492     0.17500
H1087       H  0.87640517  0.54095847  0.94766760     0.20000
H1088       H  0.79790576  0.62407510  0.92265776     0.13300
C1089       C  0.73764018  0.76046492  0.63804831     0.17200
C1090       C  0.72907358  0.74823516  0.61534265    -0.31800
C1091       C  0.74283119  0.73227924  0.60308735     0.21600
C1092       C  0.76419125  0.72859153  0.61288317     0.03800
C1093       C  0.77275134  0.74079410  0.63563880    -0.21600
C1094       C  0.75897281  0.75673691  0.64791911     0.13000
S1095       S  0.72363650  0.78064516  0.65583091    -0.05200
C1096       C  0.74674119  0.78394915  0.67688778    -0.08700
C1097       C  0.76426308  0.77016092  0.67021685    -0.25300
S1098       S  0.77831609  0.70872623  0.59465197    -0.02500
C1099       C  0.75516136  0.70542503  0.57364189    -0.16000
C1100       C  0.73756167  0.71900204  0.58063842    -0.13900
H1101       H  0.71243579  0.75106729  0.60750576     0.21400
H1102       H  0.78942830  0.73803684  0.64338575     0.17500
H1103       H  0.78006539  0.76995447  0.68116562     0.20000
H1104       H  0.72182676  0.71939792  0.56954068     0.13300
C1105       C  0.74495828  0.75496564  0.84998118     0.17200
C1106       C  0.73660552  0.73731118  0.86573458    -0.31800
C1107       C  0.74733868  0.73188082  0.89121025     0.21600
C1108       C  0.76567408  0.74349086  0.90066756     0.03800
C1109       C  0.77405499  0.76128327  0.88487065    -0.21600
C1110       C  0.76325706  0.76673774  0.85925565     0.13000
S1111       S  0.73395348  0.76393765  0.81871045    -0.05200
C1112       C  0.75410134  0.78391835  0.81784844    -0.08700
C1113       C  0.76867710  0.78346420  0.84074490    -0.25300
S1114       S  0.77645585  0.73386343  0.93200476    -0.02500
C1115       C  0.75601615  0.71404670  0.93219461    -0.16000
C1116       C  0.74166946  0.71508210  0.90922370    -0.13900
H1117       H  0.72232049  0.72816125  0.85840187     0.21400
H1118       H  0.78836054  0.77040756  0.89217246     0.17500
H1119       H  0.78226192  0.79482010  0.84380430     0.20000
H1120       H  0.72797413  0.70393488  0.90567416     0.13300
C1121       C  0.66141126  0.55828250  0.55646008     0.17200
C1122       C  0.68113325  0.56458224  0.54288922    -0.31800
C1123       C  0.68328990  0.58661168  0.53461780     0.21600
C1124       C  0.66632795  0.60159947  0.53894445     0.03800
C1125       C  0.64661477  0.59529887  0.55259776    -0.21600
C1126       C  0.64468523  0.57338525  0.56158422     0.13000
S1127       S  0.65571627  0.53240352  0.56835581    -0.05200
C1128       C  0.63072672  0.54205280  0.58102812    -0.08700
C1129       C  0.62709402  0.56420716  0.57595295    -0.25300
S1130       S  0.67241770  0.62767714  0.52795118    -0.02500
C1131       C  0.69834972  0.61846783  0.51836727    -0.16000
C1132       C  0.70173862  0.59621347  0.52290685    -0.13900
H1133       H  0.69438696  0.55289922  0.53939487     0.21400
H1134       H  0.63352670  0.60707214  0.55654069     0.17500
H1135       H  0.61222362  0.57301232  0.58196783     0.20000
H1136       H  0.71715007  0.58767244  0.51875405     0.13300
C1137       C  0.31719752  0.39776178  0.92441341     0.17200
C1138       C  0.32421473  0.41288149  0.90370592    -0.31800
C1139       C  0.34449280  0.42356367  0.90818973     0.21600
C1140       C  0.35725098  0.41923431  0.93215139     0.03800
C1141       C  0.35027775  0.40403935  0.95279471    -0.21600
C1142       C  0.32991901  0.39349544  0.94842836     0.13000
S1143       S  0.29284814  0.38365273  0.92323990    -0.05200
C1144       C  0.29971909  0.37200629  0.95558511    -0.08700
C1145       C  0.31997512  0.37867146  0.96645418    -0.25300
S1146       S  0.38098120  0.43431527  0.93416586    -0.02500
C1147       C  0.37366494  0.44671987  0.90246130    -0.16000
C1148       C  0.35387125  0.43929752  0.89095673    -0.13900
H1149       H  0.31417043  0.41636708  0.88511426     0.21400
H1150       H  0.36014250  0.40081716  0.97162375     0.17500
H1151       H  0.32671090  0.37323355  0.48621546     0.20000
H1152       H  0.34651615  0.44541617  0.87144103     0.13300
C1153       C  0.51984538  0.49119357  0.49850533     0.17200
C1154       C  0.51033555  0.48483434  0.97281870    -0.31800
C1155       C  0.49278362  0.49760683  0.96232985     0.21600
C1156       C  0.48525168  0.51602001  0.97672090     0.03800
C1157       C  0.49505062  0.52261506  0.50241620    -0.21600
C1158       C  0.51239815  0.50959222  0.51300085     0.13000
S1159       S  0.54076429  0.47732208  0.51529156    -0.05200
C1160       C  0.53938387  0.49648203  0.54218207    -0.08700
C1161       C  0.52358620  0.51271998  0.53804455    -0.25300
S1162       S  0.46311251  0.52871453  0.96095637    -0.02500
C1163       C  0.46383633  0.50876970  0.93497464    -0.16000
C1164       C  0.48063317  0.49344847  0.93831399    -0.13900
H1165       H  0.51600624  0.47037036  0.96158251     0.21400
H1166       H  0.48917916  0.53684557  0.51398092     0.17500
H1167       H  0.52034400  0.52604799  0.55272648     0.20000
H1168       H  0.48339867  0.47957817  0.92433686     0.13300
C1169       C  0.51383538  0.51095603  0.72965340     0.17200
C1170       C  0.50346471  0.51867972  0.75443291    -0.31800
C1171       C  0.48650552  0.50583158  0.76629547     0.21600
C1172       C  0.48008110  0.48611311  0.75414598     0.03800
C1173       C  0.49046394  0.47836369  0.72930589    -0.21600
C1174       C  0.50743244  0.49126545  0.71739995     0.13000
S1175       S  0.53490890  0.52407427  0.71215387    -0.05200
C1176       C  0.53515789  0.50281157  0.68802042    -0.08700
C1177       C  0.51958246  0.48654223  0.69344832    -0.25300
S1178       S  0.45901598  0.47311831  0.77195550    -0.02500
C1179       C  0.45885161  0.49457875  0.79589357    -0.16000
C1180       C  0.47443889  0.51072651  0.79019931    -0.13900
H1181       H  0.50840111  0.53405465  0.76406963     0.21400
H1182       H  0.48553904  0.46298148  0.71967796     0.17500
H1183       H  0.51740598  0.47190922  0.68067237     0.20000
H1184       H  0.47675372  0.52540396  0.80284806     0.13300
C1185       C  0.82776318  0.09799516  0.54133493     0.17200
C1186       C  0.84364348  0.08128363  0.54073226    -0.31800
C1187       C  0.85150511  0.07338520  0.56691895     0.21600
C1188       C  0.84432955  0.08200138  0.59268345     0.03800
C1189       C  0.82831128  0.09868671  0.59330982    -0.21600
C1190       C  0.82006900  0.10626813  0.56705161     0.13000
S1191       S  0.81572447  0.10929351  0.51180392    -0.05200
C1192       C  0.79967567  0.12491014  0.53431017    -0.08700
C1193       C  0.80381130  0.12167266  0.56313083    -0.25300
S1194       S  0.85622507  0.07009515  0.62204852    -0.02500
C1195       C  0.87050672  0.05303274  0.59921871    -0.16000
C1196       C  0.86635933  0.05670145  0.57055944    -0.13900
H1197       H  0.84939355  0.07449611  0.52071344     0.21400
H1198       H  0.82231111  0.10523932  0.61333778     0.17500
H1199       H  0.79520585  0.12998556  0.58027789     0.20000
H1200       H  0.87383037  0.04757035  0.55323425     0.13300
C1201       C  0.81335028  0.41257500  0.80210388     0.17200
C1202       C  0.82046442  0.43252276  0.81353536    -0.31800
C1203       C  0.84215695  0.43357912  0.82390115     0.21600
C1204       C  0.85622757  0.41558966  0.82305993     0.03800
C1205       C  0.84928152  0.39573856  0.81089730    -0.21600
C1206       C  0.82753457  0.39469356  0.80039228     0.13000
S1207       S  0.78713652  0.40766137  0.79039522    -0.05200
C1208       C  0.79539849  0.38134555  0.78259415    -0.08700
C1209       C  0.81736781  0.37672062  0.78867399    -0.25300
S1210       S  0.88172678  0.42020969  0.83773015    -0.02500
C1211       C  0.87334322  0.44671590  0.84443114    -0.16000
C1212       C  0.85196206  0.45152422  0.83586145    -0.13900
H1213       H  0.80944209  0.44652439  0.81472636     0.21400
H1214       H  0.86022029  0.38166616  0.81001479     0.17500
H1215       H  0.82515782  0.36086670  0.78578844     0.20000
H1216       H  0.84406532  0.46739646  0.83810331     0.13300
C1217       C  0.63801603  0.41444829  0.67869349     0.17200
C1218       C  0.64477020  0.39447524  0.69100293    -0.31800
C1219       C  0.66605480  0.39358258  0.70320759     0.21600
C1220       C  0.67992738  0.41173327  0.70294293     0.03800
C1221       C  0.67302907  0.43168710  0.69124170    -0.21600
C1222       C  0.65185112  0.43259891  0.67923452     0.13000
S1223       S  0.61321389  0.41907525  0.66189017    -0.05200
C1224       C  0.62164449  0.44576999  0.65613718    -0.08700
C1225       C  0.64249938  0.45056527  0.66662622    -0.25300
S1226       S  0.70563787  0.40718019  0.71660546    -0.02500
C1227       C  0.69772718  0.38055528  0.72320382    -0.16000
C1228       C  0.67613267  0.37559417  0.71533512    -0.13900
H1229       H  0.63407360  0.38021728  0.69071327     0.21400
H1230       H  0.68387856  0.44584230  0.69107606     0.17500
H1231       H  0.65050625  0.46641953  0.66491747     0.20000
H1232       H  0.66862813  0.35951932  0.71718086     0.13300
C1233       C  0.76015424  0.25923791  0.85567276     0.17200
C1234       C  0.76933482  0.24243407  0.87239710    -0.31800
C1235       C  0.75649787  0.23418447  0.89493343     0.21600
C1236       C  0.73543602  0.24228118  0.90042101     0.03800
C1237       C  0.72624703  0.25900372  0.88365353    -0.21600
C1238       C  0.73909807  0.26731559  0.86123838     0.13000
S1239       S  0.77309934  0.27156651  0.82758693    -0.05200
C1240       C  0.74994810  0.28784534  0.82339114    -0.08700
C1241       C  0.73311826  0.28374404  0.84274471    -0.25300
S1242       S  0.72250833  0.23032701  0.92873528    -0.02500
C1243       C  0.74565231  0.21415629  0.93332282    -0.16000
C1244       C  0.76250025  0.21798697  0.91382401    -0.13900
H1245       H  0.78578754  0.23614345  0.86810443     0.21400
H1246       H  0.70981975  0.26533896  0.88799516     0.17500
H1247       H  0.71737978  0.29227909  0.84323331     0.20000
H1248       H  0.77824799  0.20946323  0.91354355     0.13300
C1249       C  0.76248407  0.24398493  0.60509163     0.17200
C1250       C  0.77135314  0.26111070  0.62152106    -0.31800
C1251       C  0.75853196  0.26899002  0.64430612     0.21600
C1252       C  0.73791453  0.26008309  0.65045346     0.03800
C1253       C  0.72918750  0.24291328  0.63424744    -0.21600
C1254       C  0.74188801  0.23514176  0.61145630     0.13000
S1255       S  0.77497790  0.23241377  0.57608287    -0.05200
C1256       C  0.75216076  0.21555474  0.57261937    -0.08700
C1257       C  0.73591721  0.21880778  0.59299159    -0.25300
S1258       S  0.72471693  0.27180031  0.67859638    -0.02500
C1259       C  0.74715684  0.28895412  0.68233848    -0.16000
C1260       C  0.76399139  0.28567179  0.66267225    -0.13900
H1261       H  0.78741283  0.26809094  0.61661901     0.21400
H1262       H  0.71307501  0.23601448  0.63907046     0.17500
H1263       H  0.72045673  0.20982849  0.59408903     0.20000
H1264       H  0.77933194  0.29486925  0.66195081     0.13300
C1265       C  0.31335074  0.08435706  0.70873319     0.17200
C1266       C  0.32142202  0.06414542  0.69905383    -0.31800
C1267       C  0.34147854  0.06415251  0.68395218     0.21600
C1268       C  0.35302874  0.08339437  0.67864839     0.03800
C1269       C  0.34504351  0.10360219  0.68856500    -0.21600
C1270       C  0.32500777  0.10359977  0.70377019     0.13000
S1271       S  0.28870386  0.08796773  0.72595120    -0.05200
C1272       C  0.29418519  0.11569713  0.72658573    -0.08700
C1273       C  0.31419817  0.12164070  0.71431820    -0.25300
S1274       S  0.37707137  0.07981771  0.65988871    -0.02500
C1275       C  0.37158773  0.05208650  0.65948018    -0.16000
C1276       C  0.35204596  0.04615758  0.67301980    -0.13900
H1277       H  0.31235587  0.04909082  0.70288190     0.21400
H1278       H  0.35398113  0.11868373  0.68445796     0.17500
H1279       H  0.31998194  0.13836430  0.71195311     0.20000
H1280       H  0.34604748  0.02948480  0.67513588     0.13300
C1281       C  0.64688583  0.91303871  0.82483905     0.17200
C1282       C  0.65492157  0.89247686  0.81622532    -0.31800
C1283       C  0.67470357  0.89195190  0.80044755     0.21600
C1284       C  0.68618947  0.91101710  0.79392610     0.03800
C1285       C  0.67803824  0.93157817  0.80225451    -0.21600
C1286       C  0.65809594  0.93211560  0.81764681     0.13000
S1287       S  0.62324916  0.91726047  0.84428877    -0.05200
C1288       C  0.62829730  0.94504126  0.84215765    -0.08700
C1289       C  0.64742021  0.95050713  0.82732774    -0.25300
S1290       S  0.71037627  0.90682023  0.77576680    -0.02500
C1291       C  0.70471352  0.87911433  0.77635965    -0.16000
C1292       C  0.68516101  0.87359184  0.79015711    -0.13900
H1293       H  0.64614529  0.87753588  0.82159380     0.21400
H1294       H  0.68687510  0.94651426  0.79700665     0.17500
H1295       H  0.65327093  0.96710740  0.82393507     0.20000
H1296       H  0.67921637  0.85698176  0.79313312     0.13300
C1297       C  0.66518500  0.10194156  0.95969353     0.17200
C1298       C  0.64516659  0.09434830  0.94803829    -0.31800
C1299       C  0.64504751  0.07336559  0.93562659     0.21600
C1300       C  0.66390443  0.06035175  0.93533695     0.03800
C1301       C  0.68392532  0.06800741  0.94672547    -0.24800
C1302       C  0.68414036  0.08910863  0.95864697     0.13000
S1303       S  0.66908399  0.12715311  0.97503138    -0.05200
C1304       C  0.69666221  0.12052048  0.97931916    -0.08700
C1305       C  0.70222128  0.09971346  0.96970803    -0.25300
S1306       S  0.66020504  0.03509992  0.92031403    -0.02500
C1307       C  0.63306453  0.04226392  0.91377236    -0.16000
C1308       C  0.62732505  0.06313942  0.92294827    -0.13900
H1309       H  0.63038298  0.10442043  0.94841135     0.21400
H1310       H  0.69875172  0.05799648  0.94614901     0.17500
H1311       H  0.71878410  0.09287118  0.97024112     0.20000
H1312       H  0.61093372  0.07022959  0.92105305     0.13300
C1313       C  0.51834410  0.98520423  0.99175996     0.17200
C1314       C  0.50692656  0.97750617  0.51623266    -0.31800
C1315       C  0.49087263  0.99135650  0.52825462     0.21600
C1316       C  0.48592211  0.01162987  0.51639675     0.03800
C1317       C  0.49714854  0.01921769  0.99186271    -0.21600
C1318       C  0.51337298  0.00549405  0.97997083     0.13000
S1319       S  0.53867937  0.97108986  0.97419176    -0.05200
C1320       C  0.54061462  0.99282351  0.95084112    -0.08700
C1321       C  0.52609823  0.00994906  0.95648161    -0.25300
S1322       S  0.46600581  0.02601804  0.53434755    -0.02500
C1323       C  0.46441449  0.00453293  0.55815507    -0.16000
C1324       C  0.47856811  0.98719037  0.55221602    -0.13900
H1325       H  0.51075287  0.96170574  0.52560216     0.21400
H1326       H  0.49333631  0.03505320  0.98257727     0.17500
H1327       H  0.52495973  0.02491429  0.94407763     0.20000
H1328       H  0.47979053  0.97231102  0.56477603     0.13300
C1329       C  0.51837511  0.01201079  0.76663328     0.17200
C1330       C  0.50920432  0.01898586  0.74072951    -0.31800
C1331       C  0.49053289  0.00773707  0.73062780     0.21600
C1332       C  0.48121839  0.99043938  0.74567694     0.03800
C1333       C  0.49022181  0.98364525  0.77176680    -0.21600
C1334       C  0.50904081  0.99474348  0.78172380     0.13000
S1335       S  0.54166373  0.02278811  0.78188332    -0.05200
C1336       C  0.53891698  0.00364378  0.80867992    -0.08700
C1337       C  0.52070643  0.98994466  0.80594636    -0.25300
S1338       S  0.45886089  0.97865759  0.72938002    -0.02500
C1339       C  0.46210154  0.99731133  0.70208689    -0.16000
C1340       C  0.47958278  0.01178993  0.70565143    -0.13900
H1341       H  0.51650373  0.03235866  0.72874603     0.21400
H1342       H  0.48310668  0.97007233  0.78355046     0.17500
H1343       H  0.51647279  0.97686577  0.82063395     0.20000
H1344       H  0.48408381  0.02458928  0.69068116     0.13300
C1345       C  0.15899461  0.91661379  0.91475037     0.17200
C1346       C  0.17685454  0.90193499  0.91534991    -0.31800
C1347       C  0.18345824  0.89369669  0.94197689     0.21600
C1348       C  0.17263756  0.89955201  0.96694200     0.03800
C1349       C  0.15492594  0.91444384  0.96638490    -0.21600
C1350       C  0.14849317  0.92290155  0.93976714     0.13000
S1351       S  0.14838672  0.92837550  0.88456879    -0.05200
C1352       C  0.12989875  0.94224905  0.90593223    -0.08700
C1353       C  0.13190436  0.93778408  0.93484112    -0.25300
S1354       S  0.18300344  0.88733552  0.99699747    -0.02500
C1355       C  0.20236478  0.87457921  0.97570209    -0.16000
C1356       C  0.20061461  0.87950433  0.94691055    -0.13900
H1357       H  0.18527909  0.89717540  0.89590905     0.21400
H1358       H  0.14656495  0.91927566  0.98584063     0.17500
H1359       H  0.12170025  0.94501290  0.95136288     0.20000
H1360       H  0.21132966  0.87298480  0.93042288     0.13300
C1361       C  0.32381038  0.89926016  0.57429203     0.17200
C1362       C  0.33422915  0.91114322  0.59601445    -0.31800
C1363       C  0.35055216  0.92625799  0.58801018     0.21600
C1364       C  0.35616670  0.92953830  0.55962032     0.03800
C1365       C  0.34599918  0.91736614  0.53789763    -0.21600
C1366       C  0.32973825  0.90212518  0.54592981     0.13000
S1367       S  0.30304788  0.88079990  0.57963760    -0.05200
C1368       C  0.30252144  0.87658589  0.54330829    -0.08700
C1369       C  0.31767940  0.88895773  0.52798844    -0.25300
S1370       S  0.37559585  0.94945362  0.55429730    -0.02500
C1371       C  0.37638306  0.95307208  0.59073672    -0.16000
C1372       C  0.36228374  0.93956618  0.60601994    -0.13900
H1373       H  0.32963933  0.90888022  0.61815348     0.21400
H1374       H  0.35038050  0.91984363  0.51572907     0.17500
H1375       H  0.31973616  0.88860440  0.00473200     0.20000
H1376       H  0.36037989  0.93981633  0.62898844     0.13300
C1377       C  0.15976931  0.55865357  0.68593799     0.17200
C1378       C  0.17831459  0.56554055  0.70147597    -0.31800
C1379       C  0.17962649  0.58779113  0.70876640     0.21600
C1380       C  0.16306420  0.60250024  0.70129735     0.03800
C1381       C  0.14468349  0.59567066  0.68533125    -0.21600
C1382       C  0.14352292  0.57346550  0.67766872     0.13000
S1383       S  0.15483068  0.53226162  0.67579699    -0.05200
C1384       C  0.13089522  0.54133802  0.65964193    -0.08700
C1385       C  0.12699239  0.56364014  0.66220673    -0.25300
S1386       S  0.16759830  0.62873231  0.71266095    -0.02500
C1387       C  0.19227643  0.61986733  0.72704436    -0.16000
C1388       C  0.19656095  0.59772017  0.72328161    -0.13900
H1389       H  0.19114981  0.55404912  0.70764373     0.21400
H1390       H  0.13185911  0.60716154  0.67914252     0.17500
H1391       H  0.11258601  0.57207494  0.65385238     0.20000
H1392       H  0.21139136  0.58939305  0.73053021     0.13300
C1393       C  0.34109110  0.58161783  0.84282476     0.17200
C1394       C  0.32343304  0.59654705  0.84444920    -0.31800
C1395       C  0.31555198  0.60550984  0.81875447     0.21600
C1396       C  0.32504859  0.60017172  0.79271799     0.03800
C1397       C  0.34266117  0.58533677  0.79112540    -0.21600
C1398       C  0.35026263  0.57610464  0.81666947     0.13000
S1399       S  0.35254716  0.56801628  0.87120495    -0.05200
C1400       C  0.36941781  0.55446480  0.84733419    -0.08700
C1401       C  0.36646053  0.56057919  0.81913473    -0.25300
S1402       S  0.31309334  0.61255893  0.76393895    -0.02500
C1403       C  0.29489668  0.62490955  0.78712657    -0.16000
C1404       C  0.29810528  0.61968732  0.81565083    -0.13900
H1405       H  0.31592985  0.60068692  0.86472550     0.21400
H1406       H  0.34987426  0.58087237  0.77078926     0.17500
H1407       H  0.37539751  0.55365286  0.80124001     0.20000
H1408       H  0.28813267  0.62583206  0.83311453     0.13300
C1409       C  0.23434048  0.73136522  0.87301918     0.17200
C1410       C  0.22790299  0.74180228  0.89834151    -0.31800
C1411       C  0.24214303  0.75784430  0.90952087     0.21600
C1412       C  0.26192277  0.76324783  0.89618843     0.03800
C1413       C  0.26823854  0.75297195  0.87076344    -0.21600
C1414       C  0.25399831  0.73699827  0.85955303     0.13000
S1415       S  0.21970076  0.71113763  0.85617306    -0.05200
C1416       C  0.24023318  0.71045632  0.83065410    -0.08700
C1417       C  0.25739037  0.72515312  0.83518949    -0.25300
S1418       S  0.27692556  0.78308060  0.91319657    -0.02500
C1419       C  0.25619265  0.78434000  0.93835197    -0.16000
C1420       C  0.23876328  0.76992714  0.93373490    -0.13900
H1421       H  0.21251664  0.73757583  0.90890180     0.21400
H1422       H  0.28361354  0.75721442  0.86018846     0.17500
H1423       H  0.27173631  0.72693940  0.82148519     0.20000
H1424       H  0.22424894  0.76854825  0.94722166     0.13300
C1425       C  0.23488992  0.74089220  0.65395603     0.17200
C1426       C  0.22663197  0.75728964  0.63589594    -0.31800
C1427       C  0.24052341  0.76484748  0.61405629     0.21600
C1428       C  0.26174430  0.75653232  0.61045438     0.03800
C1429       C  0.27006262  0.74025322  0.62865808    -0.21600
C1430       C  0.25612170  0.73258930  0.65039661     0.13000
S1431       S  0.22044541  0.72926081  0.68128128    -0.05200
C1432       C  0.24319592  0.71295693  0.68794780    -0.08700
C1433       C  0.26102334  0.71653802  0.66992868    -0.25300
S1434       S  0.27593199  0.76769358  0.58255163    -0.02500
C1435       C  0.25306865  0.78378664  0.57572698    -0.16000
C1436       C  0.23544105  0.78054759  0.59416485    -0.13900
H1437       H  0.21004426  0.76375483  0.63862099     0.21400
H1438       H  0.28661443  0.73372419  0.62585354     0.17500
H1439       H  0.27664678  0.70782565  0.67098427     0.20000
H1440       H  0.21979466  0.78922285  0.59309599     0.13300
loop_ 
_geom_bond_atom_site_label_1 
_geom_bond_atom_site_label_2 
_geom_bond_distance 
_geom_bond_site_symmetry_2 
_ccdc_geom_bond_type 
O1            C4   1.269       .  A
O1           Cd6   2.456       .  S
C2           O11   1.262       .  A
C2            O7   1.268       .  A
C2          C712   1.468       .  S
O3            C9   1.266       .  A
O3           Cd6   2.489       .  S
C4           O12   1.266       .  A
C4          C683   1.467       .  S
C5           O10   1.270       .  A
C5            O8   1.265       .  A
C5          C696   1.471       .  S
Cd6          O13   2.457       .  S
Cd6          O12   2.439       .  S
Cd6          O11   2.427       .  S
Cd6           O7   2.490       .  S
Cd6          O10   2.482       .  S
Cd6           O8   2.428       .  S
C9           O13   1.262       .  A
C9          C667   1.470       .  S
O14          C17   1.269       .  A
O14         Cd19   2.499       .  S
C15          O24   1.265       .  A
C15          O20   1.271       .  A
C15         C699   1.471       .  S
O16          C22   1.270       .  A
O16         Cd19   2.461       .  S
C17          O25   1.262       .  A
C17         C648   1.469       .  S
C18          O23   1.264       .  A
C18          O21   1.267       .  A
C18         C635   1.471       .  S
Cd19         O26   2.429       .  S
Cd19         O25   2.428       .  S
Cd19        O744   2.425   1_554  S
Cd19        O740   2.482   1_554  S
Cd19        O743   2.442   1_554  S
Cd19        O741   2.488       .  S
O20        Cd739   2.481       .  S
O21        Cd739   2.489       .  S
C22          O26   1.266       .  A
C22         C715   1.467       .  S
O23        Cd739   2.444       .  S
O24        Cd739   2.424       .  S
O27          C30   1.270       .  A
O27         Cd32   2.496       .  S
C28          O37   1.266       .  A
C28          O33   1.270       .  A
C28         C568   1.475       .  S
O29          C35   1.268       .  A
O29         Cd32   2.482   1_545  S
C30          O38   1.263   1_565  A
C30         C600   1.472       .  S
C31          O36   1.267       .  A
C31          O34   1.264       .  A
C31         C587   1.472       .  S
Cd32         O39   2.436       .  S
Cd32         O38   2.431   1_565  S
Cd32         O37   2.446       .  S
Cd32         O33   2.496       .  S
Cd32         O36   2.486   1_565  S
Cd32         O34   2.459   1_565  S
C35          O39   1.263   1_545  A
C35         C616   1.469       .  S
O40          C43   1.267       .  A
O40         Cd45   2.491   1_565  S
C41          O50   1.264       .  A
C41          O46   1.269       .  A
C41         C651   1.467       .  S
O42          C48   1.267       .  A
O42         Cd45   2.499       .  S
C43          O51   1.263   1_565  A
C43         C619   1.469       .  S
C44          O49   1.270       .  A
C44          O47   1.267   1_545  A
C44         C603   1.471       .  S
Cd45         O52   2.445       .  S
Cd45         O51   2.431       .  S
Cd45         O50   2.438   1_545  S
Cd45         O46   2.470   1_545  S
Cd45         O49   2.467       .  S
Cd45         O47   2.439   1_545  S
C48          O52   1.262       .  A
C48         C555   1.472       .  S
O53          C56   1.270       .  A
O53         Cd58   2.499       .  S
C54          O63   1.262       .  A
C54          O59   1.270       .  A
C54         C520   1.470       .  S
O55          C61   1.269       .  A
O55         Cd58   2.491       .  S
C56          O64   1.264       .  A
C56         C507   1.468       .  S
C57          O62   1.269       .  A
C57          O60   1.265       .  A
C57         C488   1.463       .  S
Cd58         O65   2.401       .  S
Cd58         O64   2.423       .  S
Cd58         O63   2.424       .  S
Cd58         O59   2.492       .  S
Cd58         O62   2.473       .  S
Cd58         O60   2.419       .  S
C61          O65   1.262       .  A
C61         C539   1.465       .  S
O66          C69   1.270   1_556  A
O66        Cd791   2.470   1_556  S
C67          O76   1.263       .  A
C67          O72   1.269       .  A
C67         C523   1.470       .  S
O68          C74   1.269       .  A
O68         Cd71   2.514       .  S
C69          O77   1.266       .  A
C69         C472   1.469       .  S
C70          O75   1.271       .  A
C70          O73   1.264       .  A
C70         C536   1.471       .  S
Cd71         O78   2.454       .  S
Cd71         O76   2.426       .  S
Cd71         O72   2.498       .  S
Cd71        O786   2.469       .  S
Cd71        O797   2.439       .  S
Cd71        O795   2.477       .  S
Cd71        O793   2.444       .  S
O73        Cd791   2.444       .  S
C74          O78   1.263       .  A
C74         C584   1.477       .  S
O75        Cd791   2.477       .  S
O77        Cd791   2.440       .  S
O79          C82   1.269       .  A
O79         Cd84   2.508       .  S
C80          O89   1.260       .  A
C80          O85   1.265       .  A
C80         C427   1.475       .  S
O81          C87   1.270       .  A
O81         Cd84   2.492       .  S
C82          O90   1.264       .  A
C82         C459   1.476       .  S
C83          O88   1.266       .  A
C83          O86   1.263       .  A
C83         C680   1.470       .  S
Cd84         O91   2.423       .  S
Cd84         O90   2.442       .  S
Cd84         O89   2.458       .  S
Cd84         O85   2.522       .  S
Cd84         O88   2.504       .  S
Cd84         O86   2.440       .  S
C87          O91   1.265       .  A
C87         C443   1.471       .  S
O92          C95   1.270       .  A
O92         Cd97   2.506       .  S
C93         O102   1.263       .  A
C93          O98   1.270       .  A
C93         C456   1.475       .  S
O94         C100   1.269       .  A
O94         Cd97   2.492       .  S
C95         O103   1.264       .  A
C95         C408   1.477       .  S
C96         O101   1.269       .  A
C96          O99   1.266       .  A
C96         C504   1.472       .  S
Cd97        O104   2.429       .  S
Cd97        O103   2.454       .  S
Cd97        O102   2.439       .  S
Cd97         O98   2.500       .  S
Cd97        O101   2.494       .  S
Cd97         O99   2.431       .  S
C100        O104   1.263       .  A
C100        C440   1.471       .  S
O105        C108   1.269       .  A
O105       Cd830   2.471       .  S
C106        O115   1.263       .  A
C106        O111   1.267       .  A
C106        C379   1.469       .  S
O107        C113   1.269       .  A
O107       Cd830   2.480       .  S
C108        O116   1.266       .  A
C108        C363   1.469       .  S
C109        O114   1.267   1_554  A
C109        O112   1.262       .  A
C109        C411   1.473       .  S
Cd110       O115   2.433   1_556  S
Cd110       O111   2.490   1_556  S
Cd110       O114   2.497       .  S
Cd110       O112   2.460   1_556  S
Cd110       O825   2.472   1_556  S
Cd110       O827   2.479       .  S
Cd110       O837   2.457       .  S
Cd110       O836   2.433       .  S
C113        O117   1.264       .  A
C113        C395   1.473       .  S
O116       Cd830   2.432       .  S
O117       Cd830   2.457       .  S
O118        C121   1.264       .  A
O118       Cd123   2.493       .  S
C119        O128   1.265       .  A
C119        O124   1.271       .  A
C119        C376   1.468       .  S
O120        C126   1.272       .  A
O120       Cd123   2.482       .  S
C121        O129   1.262       .  A
C121        C571   1.473       .  S
C122        O127   1.270       .  A
C122        O125   1.261       .  A
C122        C392   1.471       .  S
Cd123       O130   2.429       .  S
Cd123       O129   2.475       .  S
Cd123       O128   2.414       .  S
Cd123       O124   2.482       .  S
Cd123       O127   2.520       .  S
Cd123       O125   2.411       .  S
C126        O130   1.265       .  A
C126        C347   1.470       .  S
O131        C134   1.266       .  A
O131       Cd136   2.501       .  S
C132        O141   1.266   1_545  A
C132        O137   1.269       .  A
C132        C328   1.469       .  S
O133        C139   1.262       .  A
O133       Cd136   2.436   1_565  S
C134        O142   1.263       .  A
C134        C475   1.471       .  S
C135        O140   1.270   1_545  A
C135        O138   1.265       .  A
C135        C312   1.474       .  S
Cd136       O143   2.518   1_545  S
Cd136       O142   2.438       .  S
Cd136       O141   2.440   1_545  S
Cd136       O137   2.468       .  S
Cd136       O140   2.493   1_545  S
Cd136       O138   2.443       .  S
C139        O143   1.268       .  A
C139        C344   1.473       .  S
O144        C147   1.266       .  A
O144       Cd149   2.489       .  S
C145        O154   1.265   1_565  A
C145        O150   1.270       .  A
C145        C331   1.469       .  S
O146        C152   1.271   1_545  A
O146       Cd149   2.488   1_545  S
C147        O155   1.263       .  A
C147        C632   1.470       .  S
C148        O153   1.269       .  A
C148        O151   1.261       .  A
C148        C296   1.472       .  S
Cd149       O156   2.424       .  S
Cd149       O155   2.453       .  S
Cd149       O154   2.411   1_565  S
Cd149       O150   2.486       .  S
Cd149       O153   2.505   1_565  S
Cd149       O151   2.436   1_565  S
C152        O156   1.266       .  A
C152        C315   1.472       .  S
O157        C160   1.266       .  A
O157       Cd162   2.489       .  S
C158        O167   1.264       .  A
C158        O163   1.269       .  A
C158        C280   1.467       .  S
O159        C165   1.269       .  A
O159       Cd162   2.513       .  S
C160        O168   1.262       .  A
C160        C552   1.469       .  S
C161        O166   1.271       .  A
C161        O164   1.265       .  A
C161        C299   1.472       .  S
Cd162       O169   2.427       .  S
Cd162       O168   2.451       .  S
Cd162       O167   2.428       .  S
Cd162       O163   2.479       .  S
Cd162       O166   2.494       .  S
Cd162       O164   2.423       .  S
C165        O169   1.261       .  A
C165        C267   1.473       .  S
O170        C173   1.269       .  A
O170       Cd175   2.467       .  S
C171        O180   1.265       .  A
C171        O176   1.266       .  A
C171        C251   1.464       .  S
O172        C178   1.271       .  A
O172       Cd895   2.502   1_554  S
C173        O181   1.264       .  A
C173        C283   1.464       .  S
C174        O179   1.272       .  A
C174        O177   1.265       .  A
C174        C424   1.471       .  S
Cd175       O181   2.413       .  S
Cd175       O179   2.489       .  S
Cd175       O177   2.416       .  S
Cd175       O892   2.502       .  S
Cd175       O902   2.418       .  S
Cd175       O900   2.448       .  S
Cd175       O896   2.458       .  S
O176       Cd895   2.457   1_554  S
C178        O182   1.263       .  A
C178        C264   1.472       .  S
O180       Cd895   2.448   1_554  S
O182       Cd895   2.419   1_554  S
O183        C186   1.271       .  A
O183       Cd188   2.485       .  S
C184        O193   1.262       .  A
C184        O189   1.271       .  A
C184        C235   1.471       .  S
O185        C191   1.270       .  A
O185       Cd188   2.466       .  S
C186        O194   1.266       .  A
C186        C360   1.472       .  S
C187        O192   1.267       .  A
C187        O190   1.264       .  A
C187        C491   1.465       .  S
Cd188       O195   2.428       .  S
Cd188       O194   2.438       .  S
Cd188       O193   2.427       .  S
Cd188       O189   2.494       .  S
Cd188       O192   2.479       .  S
Cd188       O190   2.424       .  S
C191        O195   1.265       .  A
C191        C216   1.467       .  S
O196        C199   1.271       .  A
O196       Cd201   2.494       .  S
C197        O206   1.265       .  A
C197        O202   1.271       .  A
C197        C248   1.465       .  S
O198        C204   1.271       .  A
O198       Cd201   2.491       .  S
C199        O207   1.263       .  A
C199        C232   1.469       .  S
C200        O205   1.271       .  A
C200        O203   1.265       .  A
C200        C664   1.467       .  S
Cd201       O208   2.402       .  S
Cd201       O207   2.405       .  S
Cd201       O206   2.411       .  S
Cd201       O202   2.474       .  S
Cd201       O205   2.475       .  S
Cd201       O203   2.420       .  S
C204        O208   1.263       .  A
C204        C219   1.466       .  S
C209        S215   1.704       .  A
C209        C214   1.388       .  A
C209        C210   1.402   1_655  A
C210        C931   1.402       .  A
C210        H221   1.083       .  S
C211        C220   1.372       .  A
C211        C212   1.388       .  A
C211        C930   1.402   1_554  A
C212        S218   1.699       .  A
C212        C213   1.399   1_455  A
C213        C934   1.398   1_554  A
C213        H222   1.083       .  S
C214        C217   1.369       .  A
C214        C933   1.399       .  A
S215        C216   1.723       .  A
C216        C217   1.384       .  A
C217        H223   1.083       .  S
S218        C219   1.722       .  A
C219        C220   1.385       .  A
C220        H224   1.083       .  S
C225        S231   1.701       .  A
C225        C230   1.388       .  A
C225        C226   1.400   1_455  A
C226        C227   1.399       .  A
C226        H237   1.083       .  S
C227        C236   1.372       .  A
C227        C228   1.387       .  A
C228        S234   1.705       .  A
C228        C229   1.403   1_655  A
C229        C230   1.403       .  A
C229        H238   1.083       .  S
C230        C233   1.374       .  A
S231        C232   1.722       .  A
C232        C233   1.386       .  A
C233        H239   1.083       .  S
S234        C235   1.725       .  A
C235        C236   1.384       .  A
C236        H240   1.083       .  S
C241        S247   1.703       .  A
C241        C246   1.388       .  A
C241        C242   1.400       .  A
C242        C243   1.400       .  A
C242        H253   1.083       .  S
C243        C252   1.369       .  A
C243        C244   1.388       .  A
C244        S250   1.705       .  A
C244        C245   1.400       .  A
C245        C246   1.401       .  A
C245        H254   1.083       .  S
C246        C249   1.370       .  A
S247        C248   1.722       .  A
C248        C249   1.384       .  A
C249        H255   1.083       .  S
S250        C251   1.720       .  A
C251        C252   1.385       .  A
C252        H256   1.083       .  S
C257        S263   1.712       .  A
C257        C262   1.387       .  A
C257        C258   1.401       .  A
C258        C259   1.404       .  A
C258        H269   1.083       .  S
C259        C268   1.367       .  A
C259        C260   1.387       .  A
C260        S266   1.713       .  A
C260        C261   1.401       .  A
C261        C262   1.404       .  A
C261        H270   1.083       .  S
C262        C265   1.368       .  A
S263        C264   1.722       .  A
C264        C265   1.388       .  A
C265        H271   1.083       .  S
S266        C267   1.722       .  A
C267        C268   1.388       .  A
C268        H272   1.083       .  S
C273        S279   1.703       .  A
C273        C278   1.388       .  A
C273        C274   1.401       .  A
C274        C275   1.400       .  A
C274        H285   1.083       .  S
C275        C284   1.370       .  A
C275        C276   1.388       .  A
C276        S282   1.701       .  A
C276        C277   1.399       .  A
C277        C278   1.399       .  A
C277        H286   1.083       .  S
C278        C281   1.369       .  A
S279        C280   1.723       .  A
C280        C281   1.384       .  A
C281        H287   1.083       .  S
S282        C283   1.721       .  A
C283        C284   1.384       .  A
C284        H288   1.083       .  S
C289        S295   1.706       .  A
C289        C294   1.387       .  A
C289        C290   1.404       .  A
C290        C291   1.404       .  A
C290        H301   1.083       .  S
C291        C300   1.375       .  A
C291        C292   1.387       .  A
C292        S298   1.703       .  A
C292        C293   1.401       .  A
C293        C294   1.401       .  A
C293        H302   1.083       .  S
C294        C297   1.373       .  A
S295        C296   1.725       .  A
C296        C297   1.385       .  A
C297        H303   1.083       .  S
S298        C299   1.722       .  A
C299        C300   1.387       .  A
C300        H304   1.083       .  S
C305        S311   1.706       .  A
C305        C310   1.387   1_545  A
C305        C306   1.404   1_655  A
C306       C1027   1.403   1_554  A
C306        H317   1.083       .  S
C307        C316   1.374       .  A
C307        C308   1.387   1_545  A
C307       C1026   1.403       .  A
C308        S314   1.704       .  A
C308        C309   1.402   1_455  A
C309       C1030   1.402       .  A
C309        H318   1.083       .  S
C310        C313   1.374       .  A
C310       C1029   1.402   1_554  A
S311        C312   1.725       .  A
C312        C313   1.386   1_545  A
C313        H319   1.083       .  S
S314        C315   1.723       .  A
C315        C316   1.387   1_565  A
C316        H320   1.083       .  S
C321        S327   1.707       .  A
C321        C326   1.387   1_545  A
C321        C322   1.398       .  A
C322        C323   1.400   1_645  A
C322        H333   1.083       .  S
C323        C332   1.365   1_565  A
C323        C324   1.387       .  A
C324        S330   1.712       .  A
C324        C325   1.402       .  A
C325        C326   1.404   1_455  A
C325        H334   1.083       .  S
C326        C329   1.369       .  A
S327        C328   1.721       .  A
C328        C329   1.387   1_545  A
C329        H335   1.083       .  S
S330        C331   1.723       .  A
C331        C332   1.385   1_565  A
C332        H336   1.083       .  S
C337        S343   1.702       .  A
C337        C342   1.387       .  A
C337        C338   1.400       .  A
C338        C339   1.400       .  A
C338        H349   1.083       .  S
C339        C348   1.371       .  A
C339        C340   1.387       .  A
C340        S346   1.707       .  A
C340        C341   1.405       .  A
C341        C342   1.405       .  A
C341        H350   1.083       .  S
C342        C345   1.377       .  A
S343        C344   1.722       .  A
C344        C345   1.388       .  A
C345        H351   1.083       .  S
S346        C347   1.725       .  A
C347        C348   1.384       .  A
C348        H352   1.083       .  S
C353        S359   1.710       .  A
C353        C358   1.387       .  A
C353        C354   1.401       .  A
C354        C355   1.403       .  A
C354        H365   1.083       .  S
C355        C364   1.368       .  A
C355        C356   1.387       .  A
C356        S362   1.710       .  A
C356        C357   1.401       .  A
C357        C358   1.404       .  A
C357        H366   1.083       .  S
C358        C361   1.369       .  A
S359        C360   1.722       .  A
C360        C361   1.387       .  A
C361        H367   1.083       .  S
S362        C363   1.722       .  A
C363        C364   1.386       .  A
C364        H368   1.083       .  S
C369        S375   1.710       .  A
C369        C374   1.387       .  A
C369        C370   1.400       .  A
C370        C371   1.402       .  A
C370        H381   1.083       .  S
C371        C380   1.366       .  A
C371        C372   1.387       .  A
C372        S378   1.710       .  A
C372        C373   1.400       .  A
C373        C374   1.403       .  A
C373        H382   1.083       .  S
C374        C377   1.366       .  A
S375        C376   1.721       .  A
C376        C377   1.386       .  A
C377        H383   1.083       .  S
S378        C379   1.722       .  A
C379        C380   1.386       .  A
C380        H384   1.083       .  S
C385        S391   1.700       .  A
C385        C390   1.388       .  A
C385        C386   1.399       .  A
C386        C387   1.398       .  A
C386        H397   1.083       .  S
C387        C396   1.370       .  A
C387        C388   1.387       .  A
C388        S394   1.709       .  A
C388        C389   1.406       .  A
C389        C390   1.405       .  A
C389        H398   1.083       .  S
C390        C393   1.377       .  A
S391        C392   1.722       .  A
C392        C393   1.388       .  A
C393        H399   1.083       .  S
S394        C395   1.727       .  A
C395        C396   1.384       .  A
C396        H400   1.083       .  S
C401        S407   1.707       .  A
C401        C406   1.387       .  A
C401        C402   1.403       .  A
C402        C403   1.403       .  A
C402        H413   1.083       .  S
C403        C412   1.372       .  A
C403        C404   1.387       .  A
C404        S410   1.710       .  A
C404        C405   1.404       .  A
C405        C406   1.405       .  A
C405        H414   1.083       .  S
C406        C409   1.376       .  A
S407        C408   1.724       .  A
C408        C409   1.388       .  A
C409        H415   1.083       .  S
S410        C411   1.722       .  A
C411        C412   1.388       .  A
C412        H416   1.083       .  S
C417        S423   1.704       .  A
C417        C422   1.387       .  A
C417        C418   1.403       .  A
C418        C419   1.403       .  A
C418        H429   1.083       .  S
C419        C428   1.375       .  A
C419        C420   1.387       .  A
C420        S426   1.705       .  A
C420        C421   1.403       .  A
C421        C422   1.402       .  A
C421        H430   1.083       .  S
C422        C425   1.374       .  A
S423        C424   1.724       .  A
C424        C425   1.386       .  A
C425       H1151   1.083       .  S
S426        C427   1.724       .  A
C427        C428   1.387       .  A
C428        H432   1.083       .  S
H431       C1145   1.083       .  S
C433        S439   1.711   1_556  A
C433        C438   1.387   1_556  A
C433       C1154   1.401       .  A
C434        C435   1.403       .  A
C434       C1153   1.400       .  A
C434        H445   1.083       .  S
C435        C444   1.367       .  A
C435        C436   1.387       .  A
C436        S442   1.712       .  A
C436       C1157   1.402       .  A
C437        C438   1.404       .  A
C437       C1156   1.402   1_554  A
C437        H446   1.083       .  S
C438        C441   1.368       .  A
S439        C440   1.722       .  A
C440        C441   1.387       .  A
C441        H447   1.083       .  S
S442        C443   1.723       .  A
C443        C444   1.386       .  A
C444        H448   1.083       .  S
C449        S455   1.711       .  A
C449        C454   1.386       .  A
C449        C450   1.401       .  A
C450        C451   1.403       .  A
C450        H461   1.083       .  S
C451        C460   1.369       .  A
C451        C452   1.386       .  A
C452        S458   1.714       .  A
C452        C453   1.404       .  A
C453        C454   1.406       .  A
C453        H462   1.083       .  S
C454        C457   1.371       .  A
S455        C456   1.721       .  A
C456        C457   1.390       .  A
C457        H463   1.083       .  S
S458        C459   1.724       .  A
C459        C460   1.387       .  A
C460        H464   1.083       .  S
C465        S471   1.708       .  A
C465        C470   1.387       .  A
C465        C466   1.399       .  A
C466        C467   1.401       .  A
C466        H477   1.083       .  S
C467        C476   1.366       .  A
C467        C468   1.387       .  A
C468        S474   1.713       .  A
C468        C469   1.403       .  A
C469        C470   1.405       .  A
C469        H478   1.083       .  S
C470        C473   1.370       .  A
S471        C472   1.720       .  A
C472        C473   1.388       .  A
C473        H479   1.083       .  S
S474        C475   1.724       .  A
C475        C476   1.385       .  A
C476        H480   1.083       .  S
C481        S487   1.702       .  A
C481        C486   1.388       .  A
C481        C482   1.397       .  A
C482        C483   1.398       .  A
C482        H493   1.083       .  S
C483        C492   1.365       .  A
C483        C484   1.387       .  A
C484        S490   1.710       .  A
C484        C485   1.403       .  A
C485        C486   1.404       .  A
C485        H494   1.083       .  S
C486        C489   1.372       .  A
S487        C488   1.719       .  A
C488        C489   1.385       .  A
C489        H495   1.083       .  S
S490        C491   1.722       .  A
C491        C492   1.383       .  A
C492        H496   1.084       .  S
C497        S503   1.715       .  A
C497        C502   1.387       .  A
C497        C498   1.407       .  A
C498        C499   1.407       .  A
C498        H509   1.083       .  S
C499        C508   1.376       .  A
C499        C500   1.388       .  A
C500        S506   1.701       .  A
C500        C501   1.397       .  A
C501        C502   1.398       .  A
C501        H510   1.083       .  S
C502        C505   1.366       .  A
S503        C504   1.726       .  A
C504        C505   1.383       .  A
C505        H511   1.083       .  S
S506        C507   1.719       .  A
C507        C508   1.388       .  A
C508        H512   1.083       .  S
C513        S519   1.704       .  A
C513        C518   1.388       .  A
C513        C514   1.403       .  A
C514        C515   1.402       .  A
C514        H525   1.083       .  S
C515        C524   1.374       .  A
C515        C516   1.388       .  A
C516        S522   1.702       .  A
C516        C517   1.400       .  A
C517        C518   1.400       .  A
C517        H526   1.083       .  S
C518        C521   1.372       .  A
S519        C520   1.725       .  A
C520        C521   1.384       .  A
C521        H527   1.083       .  S
S522        C523   1.723       .  A
C523        C524   1.387       .  A
C524        H528   1.083       .  S
C529        S535   1.708       .  A
C529        C534   1.387       .  A
C529        C530   1.404       .  A
C530        C531   1.404       .  A
C530        H541   1.083       .  S
C531        C540   1.373       .  A
C531        C532   1.388       .  A
C532        S538   1.699       .  A
C532        C533   1.397       .  A
C533        C534   1.398       .  A
C533        H542   1.083       .  S
C534        C537   1.368       .  A
S535        C536   1.726       .  A
C536        C537   1.383       .  A
C537        H543   1.083       .  S
S538        C539   1.720       .  A
C539        C540   1.386       .  A
C540        H544   1.083       .  S
C545        S551   1.706       .  A
C545        C550   1.387       .  A
C545        C546   1.400       .  A
C546        C547   1.402       .  A
C546        H557   1.083       .  S
C547        C556   1.368       .  A
C547        C548   1.387       .  A
C548        S554   1.711       .  A
C548        C549   1.403       .  A
C549        C550   1.404       .  A
C549        H558   1.083       .  S
C550        C553   1.372       .  A
S551        C552   1.722       .  A
C552        C553   1.386       .  A
C553        H559   1.083       .  S
S554        C555   1.723       .  A
C555        C556   1.387       .  A
C556        H560   1.083       .  S
C561        S567   1.712       .  A
C561        C566   1.387       .  A
C561        C562   1.403       .  A
C562        C563   1.405       .  A
C562        H573   1.083       .  S
C563        C572   1.373       .  A
C563        C564   1.387       .  A
C564        S570   1.709       .  A
C564        C565   1.402       .  A
C565        C566   1.403       .  A
C565        H574   1.083       .  S
C566        C569   1.371       .  A
S567        C568   1.723       .  A
C568        C569   1.388       .  A
C569        H575   1.083       .  S
S570        C571   1.723       .  A
C571        C572   1.387       .  A
C572        H576   1.083       .  S
C577        S583   1.714       .  A
C577        C582   1.387       .  A
C577        C578   1.405       .  A
C578        C579   1.406       .  A
C578        H589   1.083       .  S
C579        C588   1.374       .  A
C579        C580   1.387       .  A
C580        S586   1.708       .  A
C580        C581   1.402       .  A
C581        C582   1.403       .  A
C581        H590   1.083       .  S
C582        C585   1.371       .  A
S583        C584   1.724       .  A
C584        C585   1.387       .  A
C585        H591   1.083       .  S
S586        C587   1.722       .  A
C587        C588   1.387       .  A
C588        H592   1.083       .  S
C593        S599   1.711       .  A
C593        C598   1.387   1_565  A
C593       C1314   1.401       .  A
C594        C595   1.403       .  A
C594       C1313   1.401   1_554  A
C594        H605   1.083       .  S
C595        C604   1.370       .  A
C595        C596   1.387   1_565  A
C596        S602   1.709       .  A
C596       C1317   1.401   1_554  A
C597        C598   1.403       .  A
C597       C1316   1.402       .  A
C597        H606   1.083       .  S
C598        C601   1.369       .  A
S599        C600   1.721       .  A
C600        C601   1.388   1_565  A
C601        H607   1.083       .  S
S602        C603   1.722       .  A
C603        C604   1.387   1_545  A
C604        H608   1.083       .  S
C609        S615   1.709       .  A
C609        C614   1.387   1_545  A
C609        C610   1.400       .  A
C610        C611   1.402       .  A
C610        H621   1.083       .  S
C611        C620   1.367       .  A
C611        C612   1.387   1_545  A
C612        S618   1.710       .  A
C612        C613   1.400       .  A
C613        C614   1.403       .  A
C613        H622   1.083       .  S
C614        C617   1.367       .  A
S615        C616   1.721       .  A
C616        C617   1.387   1_545  A
C617        H623   1.083       .  S
S618        C619   1.721       .  A
C619        C620   1.386   1_565  A
C620        H624   1.083       .  S
C625        S631   1.709       .  A
C625        C630   1.387       .  A
C625        C626   1.401       .  A
C626        C627   1.402       .  A
C626        H637   1.083       .  S
C627        C636   1.369       .  A
C627        C628   1.387       .  A
C628        S634   1.711       .  A
C628        C629   1.402       .  A
C629        C630   1.404       .  A
C629        H638   1.083       .  S
C630        C633   1.370       .  A
S631        C632   1.721       .  A
C632        C633   1.387       .  A
C633        H639   1.083       .  S
S634        C635   1.723       .  A
C635        C636   1.386       .  A
C636        H640   1.083       .  S
C641        S647   1.702       .  A
C641        C646   1.387       .  A
C641        C642   1.400       .  A
C642        C643   1.400       .  A
C642        H653   1.083       .  S
C643        C652   1.369       .  A
C643        C644   1.387       .  A
C644        S650   1.706       .  A
C644        C645   1.403       .  A
C645        C646   1.403       .  A
C645        H654   1.082       .  S
C646        C649   1.373       .  A
S647        C648   1.722       .  A
C648        C649   1.386       .  A
C649       H1375   1.083       .  S
S650        C651   1.723       .  A
C651        C652   1.383       .  A
C652        H656   1.083       .  S
H655       C1369   1.083       .  S
C657        S663   1.704       .  A
C657        C662   1.388       .  A
C657        C658   1.400       .  A
C658        C659   1.401       .  A
C658        H669   1.083       .  S
C659        C668   1.370       .  A
C659        C660   1.387       .  A
C660        S666   1.709       .  A
C660        C661   1.403       .  A
C661        C662   1.403       .  A
C661        H670   1.083       .  S
C662        C665   1.372       .  A
S663        C664   1.722       .  A
C664        C665   1.385       .  A
C665        H671   1.083       .  S
S666        C667   1.722       .  A
C667        C668   1.386       .  A
C668        H672   1.083       .  S
C673        S679   1.712       .  A
C673        C678   1.387       .  A
C673        C674   1.403       .  A
C674        C675   1.405       .  A
C674        H685   1.083       .  S
C675        C684   1.370       .  A
C675        C676   1.387       .  A
C676        S682   1.705       .  A
C676        C677   1.398       .  A
C677        C678   1.400       .  A
C677        H686   1.083       .  S
C678        C681   1.366       .  A
S679        C680   1.724       .  A
C680        C681   1.385       .  A
C681        H687   1.083       .  S
S682        C683   1.719       .  A
C683        C684   1.388       .  A
C684        H688   1.083       .  S
C689        S695   1.711       .  A
C689        C694   1.387       .  A
C689        C690   1.402       .  A
C690        C691   1.404       .  A
C690        H701   1.083       .  S
C691        C700   1.369       .  A
C691        C692   1.387       .  A
C692        S698   1.709       .  A
C692        C693   1.400       .  A
C693        C694   1.402       .  A
C693        H702   1.083       .  S
C694        C697   1.368       .  A
S695        C696   1.722       .  A
C696        C697   1.386       .  A
C697        H703   1.083       .  S
S698        C699   1.721       .  A
C699        C700   1.388       .  A
C700        H704   1.083       .  S
C705        S711   1.703       .  A
C705        C710   1.388       .  A
C705        C706   1.401       .  A
C706        C707   1.401       .  A
C706        H717   1.083       .  S
C707        C716   1.370       .  A
C707        C708   1.388       .  A
C708        S714   1.704       .  A
C708        C709   1.401       .  A
C709        C710   1.401       .  A
C709        H718   1.083       .  S
C710        C713   1.371       .  A
S711        C712   1.723       .  A
C712        C713   1.384       .  A
C713        H719   1.083       .  S
S714        C715   1.722       .  A
C715        C716   1.385       .  A
C716        H720   1.083       .  S
O721        C724   1.269       .  A
O721       Cd726   2.457       .  S
C722        O731   1.262       .  A
C722        O727   1.268       .  A
C722       C1432   1.469       .  S
O723        C729   1.266       .  A
O723       Cd726   2.485       .  S
C724        O732   1.266       .  A
C724       C1403   1.467       .  S
C725        O730   1.270       .  A
C725        O728   1.265       .  A
C725       C1416   1.471       .  S
Cd726       O733   2.457       .  S
Cd726       O732   2.436       .  S
Cd726       O731   2.428       .  S
Cd726       O727   2.492       .  S
Cd726       O730   2.483       .  S
Cd726       O728   2.427       .  S
C729        O733   1.262       .  A
C729       C1387   1.469       .  S
O734        C737   1.269       .  A
O734       Cd739   2.500       .  S
C735        O744   1.265       .  A
C735        O740   1.271       .  A
C735       C1419   1.471       .  S
O736        C742   1.270       .  A
O736       Cd739   2.462       .  S
C737        O745   1.262       .  A
C737       C1368   1.469       .  S
C738        O743   1.264       .  A
C738        O741   1.267   1_556  A
C738       C1355   1.471       .  S
Cd739       O746   2.427       .  S
Cd739       O745   2.431       .  S
C742        O746   1.266       .  A
C742       C1435   1.467       .  S
O747        C750   1.270       .  A
O747       Cd752   2.494       .  S
C748        O757   1.266       .  A
C748        O753   1.270       .  A
C748       C1288   1.475       .  S
O749        C755   1.268       .  A
O749       Cd752   2.485   1_545  S
C750        O758   1.263   1_565  A
C750       C1320   1.472       .  S
C751        O756   1.267       .  A
C751        O754   1.264       .  A
C751       C1307   1.473       .  S
Cd752       O759   2.436       .  S
Cd752       O758   2.432   1_565  S
Cd752       O757   2.445       .  S
Cd752       O753   2.496       .  S
Cd752       O756   2.486   1_565  S
Cd752       O754   2.460   1_565  S
C755        O759   1.263   1_545  A
C755       C1336   1.470       .  S
O760        C763   1.267       .  A
O760       Cd765   2.492   1_565  S
C761        O770   1.264       .  A
C761        O766   1.269       .  A
C761       C1371   1.466       .  S
O762        C768   1.267       .  A
O762       Cd765   2.498       .  S
C763        O771   1.263   1_565  A
C763       C1339   1.469       .  S
C764        O769   1.270       .  A
C764        O767   1.267   1_545  A
C764       C1323   1.472       .  S
Cd765       O772   2.446       .  S
Cd765       O771   2.431       .  S
Cd765       O770   2.437   1_545  S
Cd765       O766   2.469   1_545  S
Cd765       O769   2.469       .  S
Cd765       O767   2.439   1_545  S
C768        O772   1.262       .  A
C768       C1275   1.472       .  S
O773        C776   1.270       .  A
O773       Cd778   2.498       .  S
C774        O783   1.262       .  A
C774        O779   1.270       .  A
C774       C1240   1.470       .  S
O775        C781   1.269       .  A
O775       Cd778   2.492       .  S
C776        O784   1.264       .  A
C776       C1227   1.469       .  S
C777        O782   1.269       .  A
C777        O780   1.265       .  A
C777       C1208   1.463       .  S
Cd778       O785   2.401       .  S
Cd778       O784   2.424       .  S
Cd778       O783   2.423       .  S
Cd778       O779   2.493       .  S
Cd778       O782   2.473       .  S
Cd778       O780   2.419       .  S
C781        O785   1.262       .  A
C781       C1259   1.466       .  S
O786        C789   1.270       .  A
C787        O796   1.263       .  A
C787        O792   1.269       .  A
C787       C1243   1.471       .  S
O788        C794   1.269   1_554  A
O788       Cd791   2.516       .  S
C789        O797   1.266       .  A
C789       C1192   1.469       .  S
C790        O795   1.271       .  A
C790        O793   1.264       .  A
C790       C1256   1.471       .  S
Cd791       O798   2.453   1_554  S
Cd791       O796   2.429   1_554  S
Cd791       O792   2.499   1_554  S
C794        O798   1.263       .  A
C794       C1304   1.477       .  S
O799        C802   1.269       .  A
O799       Cd804   2.509       .  S
C800        O809   1.260       .  A
C800        O805   1.265       .  A
C800       C1147   1.475       .  S
O801        C807   1.270       .  A
O801       Cd804   2.489       .  S
C802        O810   1.264       .  A
C802       C1179   1.476       .  S
C803        O808   1.266       .  A
C803        O806   1.262       .  A
C803       C1400   1.471       .  S
Cd804       O811   2.426       .  S
Cd804       O810   2.444       .  S
Cd804       O809   2.458       .  S
Cd804       O805   2.523       .  S
Cd804       O808   2.507       .  S
Cd804       O806   2.438       .  S
C807        O811   1.265       .  A
C807       C1163   1.472       .  S
O812        C815   1.270       .  A
O812       Cd817   2.505       .  S
C813        O822   1.263       .  A
C813        O818   1.270       .  A
C813       C1176   1.475       .  S
O814        C820   1.269       .  A
O814       Cd817   2.492       .  S
C815        O823   1.265       .  A
C815       C1128   1.477       .  S
C816        O821   1.269       .  A
C816        O819   1.266       .  A
C816       C1224   1.472       .  S
Cd817       O824   2.427       .  S
Cd817       O823   2.454       .  S
Cd817       O822   2.440       .  S
Cd817       O818   2.500       .  S
Cd817       O821   2.497       .  S
Cd817       O819   2.431       .  S
C820        O824   1.263       .  A
C820       C1160   1.471       .  S
O825        C828   1.269   1_554  A
C826        O835   1.263       .  A
C826        O831   1.267       .  A
C826       C1099   1.469       .  S
O827        C833   1.270       .  A
C828        O836   1.266       .  A
C828       C1083   1.470       .  S
C829        O834   1.267       .  A
C829        O832   1.262       .  A
C829       C1131   1.473       .  S
Cd830       O835   2.431       .  S
Cd830       O831   2.490       .  S
Cd830       O834   2.496       .  S
Cd830       O832   2.461       .  S
C833        O837   1.264       .  A
C833       C1115   1.473       .  S
O838        C841   1.265       .  A
O838       Cd843   2.493       .  S
C839        O848   1.265       .  A
C839        O844   1.271       .  A
C839       C1096   1.468       .  S
O840        C846   1.272       .  A
O840       Cd843   2.479       .  S
C841        O849   1.262       .  A
C841       C1291   1.473       .  S
C842        O847   1.270       .  A
C842        O845   1.261       .  A
C842       C1112   1.471       .  S
Cd843       O850   2.431       .  S
Cd843       O849   2.473       .  S
Cd843       O848   2.415       .  S
Cd843       O844   2.483       .  S
Cd843       O847   2.521       .  S
Cd843       O845   2.409       .  S
C846        O850   1.265       .  A
C846       C1067   1.470       .  S
O851        C854   1.266       .  A
O851       Cd856   2.501       .  S
C852        O861   1.266   1_545  A
C852        O857   1.269       .  A
C852       C1048   1.469       .  S
O853        C859   1.262       .  A
O853       Cd856   2.434   1_565  S
C854        O862   1.263       .  A
C854       C1195   1.470       .  S
C855        O860   1.270   1_545  A
C855        O858   1.265       .  A
C855       C1032   1.473       .  S
Cd856       O863   2.517   1_545  S
Cd856       O862   2.437       .  S
Cd856       O861   2.439   1_545  S
Cd856       O857   2.469       .  S
Cd856       O860   2.490   1_545  S
Cd856       O858   2.440       .  S
C859        O863   1.268       .  A
C859       C1064   1.473       .  S
O864        C867   1.266       .  A
O864       Cd869   2.491       .  S
C865        O874   1.265   1_565  A
C865        O870   1.270       .  A
C865       C1051   1.469       .  S
O866        C872   1.271   1_545  A
O866       Cd869   2.490   1_545  S
C867        O875   1.263       .  A
C867       C1352   1.471       .  S
C868        O873   1.269       .  A
C868        O871   1.261       .  A
C868       C1016   1.473       .  S
Cd869       O876   2.427       .  S
Cd869       O875   2.455       .  S
Cd869       O874   2.412   1_565  S
Cd869       O870   2.488       .  S
Cd869       O873   2.508   1_565  S
Cd869       O871   2.438   1_565  S
C872        O876   1.266       .  A
C872       C1035   1.473       .  S
O877        C880   1.266       .  A
O877       Cd882   2.489       .  S
C878        O887   1.264       .  A
C878        O883   1.269       .  A
C878       C1000   1.467       .  S
O879        C885   1.269       .  A
O879       Cd882   2.515       .  S
C880        O888   1.262       .  A
C880       C1272   1.469       .  S
C881        O886   1.271       .  A
C881        O884   1.265       .  A
C881       C1019   1.472       .  S
Cd882       O889   2.428       .  S
Cd882       O888   2.453       .  S
Cd882       O887   2.428       .  S
Cd882       O883   2.479       .  S
Cd882       O886   2.494       .  S
Cd882       O884   2.425       .  S
C885        O889   1.261       .  A
C885        C987   1.473       .  S
O890        C893   1.269       .  A
O890       Cd895   2.466       .  S
C891        O900   1.265       .  A
C891        O896   1.266       .  A
C891        C971   1.464       .  S
O892        C898   1.270       .  A
C893        O901   1.264       .  A
C893       C1003   1.464       .  S
C894        O899   1.272       .  A
C894        O897   1.265       .  A
C894       C1144   1.471       .  S
Cd895       O901   2.413       .  S
Cd895       O899   2.489       .  S
Cd895       O897   2.416       .  S
C898        O902   1.263       .  A
C898        C984   1.472       .  S
O903        C906   1.271       .  A
O903       Cd908   2.484       .  S
C904        O913   1.262       .  A
C904        O909   1.271       .  A
C904        C955   1.471       .  S
O905        C911   1.270       .  A
O905       Cd908   2.466       .  S
C906        O914   1.266       .  A
C906       C1080   1.472       .  S
C907        O912   1.267       .  A
C907        O910   1.263       .  A
C907       C1211   1.464       .  S
Cd908       O915   2.427       .  S
Cd908       O914   2.438       .  S
Cd908       O913   2.428       .  S
Cd908       O909   2.493       .  S
Cd908       O912   2.478       .  S
Cd908       O910   2.422       .  S
C911        O915   1.265       .  A
C911        C936   1.467       .  S
O916        C919   1.271       .  A
O916       Cd921   2.493       .  S
C917        O926   1.265       .  A
C917        O922   1.271       .  A
C917        C968   1.465       .  S
O918        C924   1.271       .  A
O918       Cd921   2.492       .  S
C919        O927   1.263       .  A
C919        C952   1.469       .  S
C920        O925   1.271       .  A
C920        O923   1.265       .  A
C920       C1384   1.467       .  S
Cd921       O928   2.401       .  S
Cd921       O927   2.406       .  S
Cd921       O926   2.412       .  S
Cd921       O922   2.473       .  S
Cd921       O925   2.474       .  S
Cd921       O923   2.419       .  S
C924        O928   1.263       .  A
C924        C939   1.466       .  S
C929        S935   1.704       .  A
C929        C934   1.388       .  A
C929        C930   1.402   1_655  A
C930        H941   1.083       .  S
C931        C940   1.373       .  A
C931        C932   1.388       .  A
C932        S938   1.699       .  A
C932        C933   1.399   1_455  A
C933        H942   1.083       .  S
C934        C937   1.369       .  A
S935        C936   1.723       .  A
C936        C937   1.383       .  A
C937        H943   1.083       .  S
S938        C939   1.722       .  A
C939        C940   1.385       .  A
C940        H944   1.083       .  S
C945        S951   1.701       .  A
C945        C950   1.388       .  A
C945        C946   1.400   1_455  A
C946        C947   1.400       .  A
C946        H957   1.083       .  S
C947        C956   1.372       .  A
C947        C948   1.387       .  A
C948        S954   1.705       .  A
C948        C949   1.403   1_655  A
C949        C950   1.402       .  A
C949        H958   1.083       .  S
C950        C953   1.374       .  A
S951        C952   1.722       .  A
C952        C953   1.386       .  A
C953        H959   1.083       .  S
S954        C955   1.725       .  A
C955        C956   1.384       .  A
C956        H960   1.083       .  S
C961        S967   1.703       .  A
C961        C966   1.388       .  A
C961        C962   1.400       .  A
C962        C963   1.400       .  A
C962        H973   1.083       .  S
C963        C972   1.369       .  A
C963        C964   1.388       .  A
C964        S970   1.705       .  A
C964        C965   1.401       .  A
C965        C966   1.401       .  A
C965        H974   1.083       .  S
C966        C969   1.371       .  A
S967        C968   1.722       .  A
C968        C969   1.384       .  A
C969        H975   1.083       .  S
S970        C971   1.720       .  A
C971        C972   1.385       .  A
C972        H976   1.083       .  S
C977        S983   1.712       .  A
C977        C982   1.387       .  A
C977        C978   1.401       .  A
C978        C979   1.404       .  A
C978        H989   1.083       .  S
C979        C988   1.367       .  A
C979        C980   1.387       .  A
C980        S986   1.713       .  A
C980        C981   1.401       .  A
C981        C982   1.404       .  A
C981        H990   1.083       .  S
C982        C985   1.367       .  A
S983        C984   1.722       .  A
C984        C985   1.388       .  A
C985        H991   1.083       .  S
S986        C987   1.722       .  A
C987        C988   1.388       .  A
C988        H992   1.083       .  S
C993        S999   1.703       .  A
C993        C998   1.388       .  A
C993        C994   1.401       .  A
C994        C995   1.400       .  A
C994       H1005   1.083       .  S
C995       C1004   1.370       .  A
C995        C996   1.388       .  A
C996       S1002   1.701       .  A
C996        C997   1.399       .  A
C997        C998   1.399       .  A
C997       H1006   1.083       .  S
C998       C1001   1.369       .  A
S999       C1000   1.723       .  A
C1000      C1001   1.384       .  A
C1001      H1007   1.083       .  S
S1002      C1003   1.721       .  A
C1003      C1004   1.384       .  A
C1004      H1008   1.083       .  S
C1009      S1015   1.706       .  A
C1009      C1014   1.387       .  A
C1009      C1010   1.404       .  A
C1010      C1011   1.404       .  A
C1010      H1021   1.083       .  S
C1011      C1020   1.375       .  A
C1011      C1012   1.387       .  A
C1012      S1018   1.703       .  A
C1012      C1013   1.402       .  A
C1013      C1014   1.401       .  A
C1013      H1022   1.083       .  S
C1014      C1017   1.374       .  A
S1015      C1016   1.725       .  A
C1016      C1017   1.385       .  A
C1017      H1023   1.083       .  S
S1018      C1019   1.723       .  A
C1019      C1020   1.387       .  A
C1020      H1024   1.083       .  S
C1025      S1031   1.706       .  A
C1025      C1030   1.387   1_545  A
C1025      C1026   1.403   1_655  A
C1026      H1037   1.083       .  S
C1027      C1036   1.375       .  A
C1027      C1028   1.387   1_545  A
C1028      S1034   1.704       .  A
C1028      C1029   1.402   1_455  A
C1029      H1038   1.083       .  S
C1030      C1033   1.373       .  A
S1031      C1032   1.724       .  A
C1032      C1033   1.386   1_545  A
C1033      H1039   1.083       .  S
S1034      C1035   1.723       .  A
C1035      C1036   1.387   1_565  A
C1036      H1040   1.083       .  S
C1041      S1047   1.707       .  A
C1041      C1046   1.387   1_545  A
C1041      C1042   1.398       .  A
C1042      C1043   1.401   1_645  A
C1042      H1053   1.083       .  S
C1043      C1052   1.365   1_565  A
C1043      C1044   1.387       .  A
C1044      S1050   1.712       .  A
C1044      C1045   1.402       .  A
C1045      C1046   1.404   1_455  A
C1045      H1054   1.083       .  S
C1046      C1049   1.369       .  A
S1047      C1048   1.721       .  A
C1048      C1049   1.387   1_545  A
C1049      H1055   1.083       .  S
S1050      C1051   1.723       .  A
C1051      C1052   1.385   1_565  A
C1052      H1056   1.083       .  S
C1057      S1063   1.702       .  A
C1057      C1062   1.387       .  A
C1057      C1058   1.400       .  A
C1058      C1059   1.399       .  A
C1058      H1069   1.083       .  S
C1059      C1068   1.371       .  A
C1059      C1060   1.387       .  A
C1060      S1066   1.708       .  A
C1060      C1061   1.405       .  A
C1061      C1062   1.405       .  A
C1061      H1070   1.083       .  S
C1062      C1065   1.377       .  A
S1063      C1064   1.722       .  A
C1064      C1065   1.388       .  A
C1065      H1071   1.083       .  S
S1066      C1067   1.725       .  A
C1067      C1068   1.383       .  A
C1068      H1072   1.083       .  S
C1073      S1079   1.710       .  A
C1073      C1078   1.387       .  A
C1073      C1074   1.401       .  A
C1074      C1075   1.403       .  A
C1074      H1085   1.083       .  S
C1075      C1084   1.368       .  A
C1075      C1076   1.387       .  A
C1076      S1082   1.710       .  A
C1076      C1077   1.402       .  A
C1077      C1078   1.404       .  A
C1077      H1086   1.083       .  S
C1078      C1081   1.369       .  A
S1079      C1080   1.722       .  A
C1080      C1081   1.387       .  A
C1081      H1087   1.083       .  S
S1082      C1083   1.722       .  A
C1083      C1084   1.386       .  A
C1084      H1088   1.083       .  S
C1089      S1095   1.710       .  A
C1089      C1094   1.387       .  A
C1089      C1090   1.400       .  A
C1090      C1091   1.402       .  A
C1090      H1101   1.083       .  S
C1091      C1100   1.366       .  A
C1091      C1092   1.387       .  A
C1092      S1098   1.710       .  A
C1092      C1093   1.400       .  A
C1093      C1094   1.403       .  A
C1093      H1102   1.083       .  S
C1094      C1097   1.366       .  A
S1095      C1096   1.721       .  A
C1096      C1097   1.386       .  A
C1097      H1103   1.083       .  S
S1098      C1099   1.722       .  A
C1099      C1100   1.386       .  A
C1100      H1104   1.083       .  S
C1105      S1111   1.699       .  A
C1105      C1110   1.388       .  A
C1105      C1106   1.398       .  A
C1106      C1107   1.398       .  A
C1106      H1117   1.083       .  S
C1107      C1116   1.370       .  A
C1107      C1108   1.387       .  A
C1108      S1114   1.710       .  A
C1108      C1109   1.406       .  A
C1109      C1110   1.406       .  A
C1109      H1118   1.083       .  S
C1110      C1113   1.377       .  A
S1111      C1112   1.722       .  A
C1112      C1113   1.388       .  A
C1113      H1119   1.083       .  S
S1114      C1115   1.727       .  A
C1115      C1116   1.383       .  A
C1116      H1120   1.083       .  S
C1121      S1127   1.707       .  A
C1121      C1126   1.387       .  A
C1121      C1122   1.403       .  A
C1122      C1123   1.403       .  A
C1122      H1133   1.083       .  S
C1123      C1132   1.372       .  A
C1123      C1124   1.387       .  A
C1124      S1130   1.710       .  A
C1124      C1125   1.404       .  A
C1125      C1126   1.405       .  A
C1125      H1134   1.083       .  S
C1126      C1129   1.376       .  A
S1127      C1128   1.724       .  A
C1128      C1129   1.388       .  A
C1129      H1135   1.083       .  S
S1130      C1131   1.722       .  A
C1131      C1132   1.388       .  A
C1132      H1136   1.083       .  S
C1137      S1143   1.704       .  A
C1137      C1142   1.387       .  A
C1137      C1138   1.403       .  A
C1138      C1139   1.403       .  A
C1138      H1149   1.083       .  S
C1139      C1148   1.375       .  A
C1139      C1140   1.387       .  A
C1140      S1146   1.705       .  A
C1140      C1141   1.403       .  A
C1141      C1142   1.402       .  A
C1141      H1150   1.083       .  S
C1142      C1145   1.374       .  A
S1143      C1144   1.724       .  A
C1144      C1145   1.386       .  A
S1146      C1147   1.724       .  A
C1147      C1148   1.387       .  A
C1148      H1152   1.083       .  S
C1153      S1159   1.711       .  A
C1153      C1158   1.387       .  A
C1154      C1155   1.403       .  A
C1154      H1165   1.083       .  S
C1155      C1164   1.368       .  A
C1155      C1156   1.387       .  A
C1156      S1162   1.711       .  A
C1157      C1158   1.404       .  A
C1157      H1166   1.083       .  S
C1158      C1161   1.368       .  A
S1159      C1160   1.721       .  A
C1160      C1161   1.388       .  A
C1161      H1167   1.083       .  S
S1162      C1163   1.722       .  A
C1163      C1164   1.387       .  A
C1164      H1168   1.083       .  S
C1169      S1175   1.711       .  A
C1169      C1174   1.386       .  A
C1169      C1170   1.401       .  A
C1170      C1171   1.403       .  A
C1170      H1181   1.083       .  S
C1171      C1180   1.369       .  A
C1171      C1172   1.386       .  A
C1172      S1178   1.714       .  A
C1172      C1173   1.404       .  A
C1173      C1174   1.406       .  A
C1173      H1182   1.083       .  S
C1174      C1177   1.371       .  A
S1175      C1176   1.721       .  A
C1176      C1177   1.390       .  A
C1177      H1183   1.083       .  S
S1178      C1179   1.725       .  A
C1179      C1180   1.387       .  A
C1180      H1184   1.083       .  S
C1185      S1191   1.708       .  A
C1185      C1190   1.387       .  A
C1185      C1186   1.399       .  A
C1186      C1187   1.401       .  A
C1186      H1197   1.083       .  S
C1187      C1196   1.366       .  A
C1187      C1188   1.387       .  A
C1188      S1194   1.713       .  A
C1188      C1189   1.403       .  A
C1189      C1190   1.405       .  A
C1189      H1198   1.083       .  S
C1190      C1193   1.370       .  A
S1191      C1192   1.720       .  A
C1192      C1193   1.388       .  A
C1193      H1199   1.083       .  S
S1194      C1195   1.724       .  A
C1195      C1196   1.384       .  A
C1196      H1200   1.083       .  S
C1201      S1207   1.702       .  A
C1201      C1206   1.388       .  A
C1201      C1202   1.397       .  A
C1202      C1203   1.398       .  A
C1202      H1213   1.083       .  S
C1203      C1212   1.365       .  A
C1203      C1204   1.387       .  A
C1204      S1210   1.710       .  A
C1204      C1205   1.403       .  A
C1205      C1206   1.404       .  A
C1205      H1214   1.083       .  S
C1206      C1209   1.371       .  A
S1207      C1208   1.719       .  A
C1208      C1209   1.385       .  A
C1209      H1215   1.083       .  S
S1210      C1211   1.722       .  A
C1211      C1212   1.383       .  A
C1212      H1216   1.084       .  S
C1217      S1223   1.715       .  A
C1217      C1222   1.387       .  A
C1217      C1218   1.407       .  A
C1218      C1219   1.408       .  A
C1218      H1229   1.083       .  S
C1219      C1228   1.376       .  A
C1219      C1220   1.388       .  A
C1220      S1226   1.702       .  A
C1220      C1221   1.397       .  A
C1221      C1222   1.398       .  A
C1221      H1230   1.083       .  S
C1222      C1225   1.366       .  A
S1223      C1224   1.726       .  A
C1224      C1225   1.383       .  A
C1225      H1231   1.083       .  S
S1226      C1227   1.719       .  A
C1227      C1228   1.388       .  A
C1228      H1232   1.083       .  S
C1233      S1239   1.704       .  A
C1233      C1238   1.387       .  A
C1233      C1234   1.403       .  A
C1234      C1235   1.403       .  A
C1234      H1245   1.083       .  S
C1235      C1244   1.374       .  A
C1235      C1236   1.388       .  A
C1236      S1242   1.702       .  A
C1236      C1237   1.401       .  A
C1237      C1238   1.400       .  A
C1237      H1246   1.083       .  S
C1238      C1241   1.372       .  A
S1239      C1240   1.725       .  A
C1240      C1241   1.384       .  A
C1241      H1247   1.083       .  S
S1242      C1243   1.723       .  A
C1243      C1244   1.387       .  A
C1244      H1248   1.083       .  S
C1249      S1255   1.708       .  A
C1249      C1254   1.387       .  A
C1249      C1250   1.404       .  A
C1250      C1251   1.404       .  A
C1250      H1261   1.083       .  S
C1251      C1260   1.373       .  A
C1251      C1252   1.388       .  A
C1252      S1258   1.699       .  A
C1252      C1253   1.397       .  A
C1253      C1254   1.398       .  A
C1253      H1262   1.083       .  S
C1254      C1257   1.369       .  A
S1255      C1256   1.726       .  A
C1256      C1257   1.383       .  A
C1257      H1263   1.083       .  S
S1258      C1259   1.721       .  A
C1259      C1260   1.386       .  A
C1260      H1264   1.083       .  S
C1265      S1271   1.706       .  A
C1265      C1270   1.387       .  A
C1265      C1266   1.401       .  A
C1266      C1267   1.402       .  A
C1266      H1277   1.083       .  S
C1267      C1276   1.369       .  A
C1267      C1268   1.387       .  A
C1268      S1274   1.710       .  A
C1268      C1269   1.402       .  A
C1269      C1270   1.403       .  A
C1269      H1278   1.083       .  S
C1270      C1273   1.371       .  A
S1271      C1272   1.723       .  A
C1272      C1273   1.386       .  A
C1273      H1279   1.083       .  S
S1274      C1275   1.723       .  A
C1275      C1276   1.387       .  A
C1276      H1280   1.083       .  S
C1281      S1287   1.712       .  A
C1281      C1286   1.387       .  A
C1281      C1282   1.403       .  A
C1282      C1283   1.405       .  A
C1282      H1293   1.083       .  S
C1283      C1292   1.373       .  A
C1283      C1284   1.387       .  A
C1284      S1290   1.709       .  A
C1284      C1285   1.402       .  A
C1285      C1286   1.403       .  A
C1285      H1294   1.083       .  S
C1286      C1289   1.371       .  A
S1287      C1288   1.723       .  A
C1288      C1289   1.388       .  A
C1289      H1295   1.083       .  S
S1290      C1291   1.723       .  A
C1291      C1292   1.387       .  A
C1292      H1296   1.083       .  S
C1297      S1303   1.714       .  A
C1297      C1302   1.387       .  A
C1297      C1298   1.405       .  A
C1298      C1299   1.406       .  A
C1298      H1309   1.083       .  S
C1299      C1308   1.374       .  A
C1299      C1300   1.387       .  A
C1300      S1306   1.708       .  A
C1300      C1301   1.402       .  A
C1301      C1302   1.403       .  A
C1301      H1310   1.083       .  S
C1302      C1305   1.371       .  A
S1303      C1304   1.725       .  A
C1304      C1305   1.387       .  A
C1305      H1311   1.083       .  S
S1306      C1307   1.723       .  A
C1307      C1308   1.387       .  A
C1308      H1312   1.083       .  S
C1313      S1319   1.710       .  A
C1313      C1318   1.387   1_565  A
C1314      C1315   1.403       .  A
C1314      H1325   1.083       .  S
C1315      C1324   1.370       .  A
C1315      C1316   1.387   1_565  A
C1316      S1322   1.709       .  A
C1317      C1318   1.403       .  A
C1317      H1326   1.083       .  S
C1318      C1321   1.369       .  A
S1319      C1320   1.721       .  A
C1320      C1321   1.388   1_565  A
C1321      H1327   1.083       .  S
S1322      C1323   1.722       .  A
C1323      C1324   1.387   1_545  A
C1324      H1328   1.083       .  S
C1329      S1335   1.709       .  A
C1329      C1334   1.387   1_545  A
C1329      C1330   1.400       .  A
C1330      C1331   1.402       .  A
C1330      H1341   1.083       .  S
C1331      C1340   1.367       .  A
C1331      C1332   1.387   1_545  A
C1332      S1338   1.710       .  A
C1332      C1333   1.400       .  A
C1333      C1334   1.403       .  A
C1333      H1342   1.083       .  S
C1334      C1337   1.367       .  A
S1335      C1336   1.721       .  A
C1336      C1337   1.387   1_545  A
C1337      H1343   1.083       .  S
S1338      C1339   1.721       .  A
C1339      C1340   1.386   1_565  A
C1340      H1344   1.083       .  S
C1345      S1351   1.710       .  A
C1345      C1350   1.387       .  A
C1345      C1346   1.401       .  A
C1346      C1347   1.403       .  A
C1346      H1357   1.083       .  S
C1347      C1356   1.369       .  A
C1347      C1348   1.387       .  A
C1348      S1354   1.711       .  A
C1348      C1349   1.402       .  A
C1349      C1350   1.404       .  A
C1349      H1358   1.083       .  S
C1350      C1353   1.370       .  A
S1351      C1352   1.721       .  A
C1352      C1353   1.387       .  A
C1353      H1359   1.083       .  S
S1354      C1355   1.722       .  A
C1355      C1356   1.386       .  A
C1356      H1360   1.083       .  S
C1361      S1367   1.703       .  A
C1361      C1366   1.387       .  A
C1361      C1362   1.400       .  A
C1362      C1363   1.400       .  A
C1362      H1373   1.083       .  S
C1363      C1372   1.369       .  A
C1363      C1364   1.387       .  A
C1364      S1370   1.706       .  A
C1364      C1365   1.402       .  A
C1365      C1366   1.403       .  A
C1365      H1374   1.082       .  S
C1366      C1369   1.373       .  A
S1367      C1368   1.723       .  A
C1368      C1369   1.386       .  A
S1370      C1371   1.723       .  A
C1371      C1372   1.383       .  A
C1372      H1376   1.083       .  S
C1377      S1383   1.704       .  A
C1377      C1382   1.388       .  A
C1377      C1378   1.401       .  A
C1378      C1379   1.401       .  A
C1378      H1389   1.083       .  S
C1379      C1388   1.370       .  A
C1379      C1380   1.387       .  A
C1380      S1386   1.708       .  A
C1380      C1381   1.402       .  A
C1381      C1382   1.403       .  A
C1381      H1390   1.083       .  S
C1382      C1385   1.372       .  A
S1383      C1384   1.722       .  A
C1384      C1385   1.385       .  A
C1385      H1391   1.083       .  S
S1386      C1387   1.722       .  A
C1387      C1388   1.386       .  A
C1388      H1392   1.083       .  S
C1393      S1399   1.712       .  A
C1393      C1398   1.387       .  A
C1393      C1394   1.403       .  A
C1394      C1395   1.405       .  A
C1394      H1405   1.083       .  S
C1395      C1404   1.370       .  A
C1395      C1396   1.387       .  A
C1396      S1402   1.705       .  A
C1396      C1397   1.397       .  A
C1397      C1398   1.400       .  A
C1397      H1406   1.083       .  S
C1398      C1401   1.365       .  A
S1399      C1400   1.724       .  A
C1400      C1401   1.384       .  A
C1401      H1407   1.083       .  S
S1402      C1403   1.719       .  A
C1403      C1404   1.388       .  A
C1404      H1408   1.083       .  S
C1409      S1415   1.711       .  A
C1409      C1414   1.387       .  A
C1409      C1410   1.402       .  A
C1410      C1411   1.404       .  A
C1410      H1421   1.083       .  S
C1411      C1420   1.369       .  A
C1411      C1412   1.387       .  A
C1412      S1418   1.709       .  A
C1412      C1413   1.400       .  A
C1413      C1414   1.402       .  A
C1413      H1422   1.083       .  S
C1414      C1417   1.367       .  A
S1415      C1416   1.722       .  A
C1416      C1417   1.386       .  A
C1417      H1423   1.083       .  S
S1418      C1419   1.721       .  A
C1419      C1420   1.388       .  A
C1420      H1424   1.083       .  S
C1425      S1431   1.703       .  A
C1425      C1430   1.388       .  A
C1425      C1426   1.401       .  A
C1426      C1427   1.400       .  A
C1426      H1437   1.083       .  S
C1427      C1436   1.370       .  A
C1427      C1428   1.388       .  A
C1428      S1434   1.704       .  A
C1428      C1429   1.401       .  A
C1429      C1430   1.401       .  A
C1429      H1438   1.083       .  S
C1430      C1433   1.371       .  A
S1431      C1432   1.723       .  A
C1432      C1433   1.385       .  A
C1433      H1439   1.083       .  S
S1434      C1435   1.723       .  A
C1435      C1436   1.384       .  A
C1436      H1440   1.083       .  S
