geometry optimzed in LAMMPS
_audit_creation_date              2020-12-01 
_audit_creation_method            'lammps2cif' 
_symmetry_space_group_name_H-M    'P1' 
_symmetry_Int_Tables_number       1 
_symmetry_cell_setting            triclinic 
loop_ 
_symmetry_equiv_pos_as_xyz 
  x,y,z 
_cell_length_a                    49.34116748 
_cell_length_b                    48.09920736701095 
_cell_length_c                    30.999294422776956 
_cell_angle_alpha                 89.40162554819187 
_cell_angle_beta                  89.86210883481426 
_cell_angle_gamma                 90.03088263776833 
loop_ 
_atom_site_label 
_atom_site_type_symbol 
_atom_site_fract_x 
_atom_site_fract_y 
_atom_site_fract_z 
_atom_site_charge 
C1          C  0.40517010  0.31306975  0.32621922     0.82700
N2          N  0.42347852  0.29695755  0.34750198    -0.75600
C3          C  0.44941764  0.30610592  0.35255409     0.85100
N4          N  0.45671988  0.33140489  0.33638448    -0.75600
C5          C  0.43817748  0.34743852  0.31556456     0.85200
N6          N  0.41253661  0.33825719  0.31056848    -0.77300
C7          C  0.36673482  0.41322082  0.04502323     0.82700
N8          N  0.36155950  0.38661749  0.05751720    -0.75600
C9          C  0.33665398  0.37538881  0.05175272     0.85100
N10         N  0.31664374  0.39096615  0.03366363    -0.75600
C11         C  0.32130172  0.41783862  0.02157972     0.85200
N12         N  0.34648366  0.42904235  0.02751179    -0.77300
C13         C  0.17776203  0.38366362  0.36819686     0.82700
N14         N  0.15156497  0.38950569  0.35853431    -0.75600
C15         C  0.14105352  0.41490873  0.36686637     0.85100
N16         N  0.15699260  0.43474663  0.38479520    -0.75600
C17         C  0.18350146  0.42937620  0.39397764     0.85200
N18         N  0.19390350  0.40370943  0.38544897    -0.77300
C19         C  0.43974858  0.14432512  0.09531686     0.82700
N20         N  0.45345740  0.16395467  0.07231355    -0.75600
C21         C  0.44202977  0.18931655  0.06501898     0.85100
N22         N  0.41682518  0.19473191  0.08077722    -0.75600
C23         C  0.40314997  0.17476937  0.10331072     0.85200
N24         N  0.41465098  0.14971046  0.11049091    -0.77300
C25         C  0.07181364  0.43684720  0.30542044     0.44900
N26         N  0.05697625  0.46363735  0.25481920     0.03800
C27         C  0.44078755  0.04181956  0.26635495    -0.04100
H28         H  0.42589264  0.43492750  0.21765338     0.09300
C29         C  0.46434332  0.45248087  0.07765523    -0.04400
Co30       Co  0.00659583  0.49359980  0.28016966     0.74200
N31         N  0.45613277  0.46488535  0.23681488    -0.23600
Co32       Co  0.45585901  0.49675738  0.18980991     0.74100
C33         C  0.43756925  0.44269995  0.09218015     0.45000
N34         N  0.04072320  0.46358047  0.12591575     0.03400
N35         N  0.45539356  0.46801353  0.14113047     0.03500
N36         N  0.46898386  0.03659777  0.32296092    -0.44500
H37         H  0.03482310  0.44633394  0.34826315     0.09300
N38         N  0.97722458  0.46319251  0.27293417     0.03800
N39         N  0.46682157  0.02854363  0.16122431     0.03500
C40         C  0.46511590  0.06684452  0.12614432     0.45100
N41         N  0.05822699  0.46223614  0.15829878    -0.23100
C42         C  0.03370914  0.04651535  0.30225326    -0.04000
N43         N  0.07778840  0.44802831  0.26660843    -0.44200
N44         N  0.45318291  0.05219936  0.15834425    -0.44400
C45         C  0.05692101  0.06122503  0.28475299     0.44900
N46         N  0.47720339  0.02168831  0.28953739     0.03800
N47         N  0.05535130  0.02184465  0.15330379    -0.23100
N48         N  0.03763353  0.46415106  0.28410211    -0.23600
N49         N  0.03801738  0.02190788  0.12110272     0.03400
H50         H  0.09398562  0.04149951  0.16282530     0.09300
H51         H  0.50195166  0.05588337  0.08433026     0.09400
N52         N  0.46050103  0.02386890  0.25663317    -0.23600
N53         N  0.47387143  0.46800656  0.11037862    -0.23200
N54         N  0.05154479  0.02418200  0.24877159     0.03800
C55         C  0.45288532  0.42668266  0.27686390     0.45200
C56         C  0.07250657  0.43861398  0.15462098    -0.04500
N57         N  0.48696765  0.02737666  0.13305844    -0.23200
H58         H  0.98085933  0.45217618  0.05131665     0.09300
N59         N  0.97515560  0.43995083  0.29583784    -0.44500
H60         H  0.08789558  0.43127510  0.17674489     0.09300
C61         C  0.06956833  0.05019673  0.10148566     0.45000
C62         C  0.04518000  0.44778673  0.31751035    -0.04000
Co63       Co  0.05911159  0.49326607  0.20611137     0.73800
N64         N  0.04203970  0.44187638  0.10010054    -0.44200
C65         C  0.44642906  0.05039429  0.31019395     0.45300
N66         N  0.06700033  0.04661351  0.25148850    -0.44200
Co67       Co  0.01352810  0.49648241  0.12079737     0.73900
C68         C  0.48742088  0.05071892  0.10931467    -0.04500
C69         C  0.44151683  0.44140975  0.23978300    -0.04100
N70         N  0.03187174  0.02387252  0.27788897    -0.23600
N71         N  0.43350968  0.45358632  0.13131660    -0.44400
H72         H  0.42274646  0.04537894  0.24733151     0.09300
C73         C  0.07563449  0.03932742  0.14413873    -0.04500
Cl74       Cl  0.01011939  0.49514627  0.20053119    -0.47500
C75         C  0.06178023  0.42547607  0.11598240     0.45100
H76         H  0.02011496  0.05214896  0.32813239     0.09300
N77         N  0.04627570  0.03799849  0.08849781    -0.44200
C78         C  0.11506203  0.31253818  0.09215458     0.82700
N79         N  0.10639221  0.33898792  0.09672706    -0.75600
C80         C  0.08152089  0.34657352  0.08273521     0.85100
N81         N  0.06512674  0.32755895  0.06373289    -0.75600
C82         C  0.07371884  0.30078892  0.05907417     0.85200
N83         N  0.09870608  0.29334015  0.07364241    -0.77300
C84         C  0.37777001  0.07260206  0.37271002     0.82700
N85         N  0.36769085  0.09835771  0.36468444    -0.75600
C86         C  0.34165542  0.10451901  0.37498536     0.85100
N87         N  0.32529557  0.08451364  0.39230347    -0.75600
C88         C  0.33522298  0.05855974  0.40049762     0.85200
N89         N  0.36155173  0.05275388  0.39077651    -0.77300
C90         C  0.06591984  0.17940758  0.35915588     0.82700
N91         N  0.05902073  0.15429591  0.34290518    -0.75600
C92         C  0.07803375  0.13815676  0.32401931     0.85100
N93         N  0.10387688  0.14713365  0.32069721    -0.75600
C94         C  0.11093686  0.17221736  0.33641481     0.85200
N95         N  0.09204850  0.18846344  0.35592065    -0.77300
C96         C  0.13936828  0.07548715  0.04762259     0.82700
N97         N  0.15620163  0.05667810  0.02923066    -0.75600
C98         C  0.18317353  0.06207085  0.02517004     0.85100
N99         N  0.19325927  0.08672191  0.03956725    -0.75600
C100        C  0.17626261  0.10577827  0.05753159     0.85200
N101        N  0.14949964  0.09989096  0.06192585    -0.77300
C102        C  0.32675248  0.29293988  0.30338780     0.44900
N103        N  0.29013981  0.28884685  0.26731754     0.03800
C104        C  0.20230520  0.17886726  0.26940652    -0.04100
H105        H  0.30213473  0.14888946  0.25888027     0.09300
C106        C  0.31018436  0.21082431  0.11818839    -0.04400
Co107      Co  0.25755725  0.24069556  0.29935050     0.74200
N108        N  0.28426779  0.18920144  0.26783404    -0.23600
Co109      Co  0.25651152  0.19123543  0.21857661     0.74100
C110        C  0.32477703  0.18766150  0.13691214     0.45000
N111        N  0.28703601  0.27447106  0.13952902     0.03400
N112        N  0.28781265  0.19281252  0.17201091     0.03500
N113        N  0.20428900  0.21190460  0.32101433    -0.44500
H114        H  0.31638127  0.25591299  0.34768773     0.09300
N115        N  0.28464727  0.20705214  0.29972806     0.03800
N116        N  0.22854624  0.19157659  0.16906733     0.03500
C117        C  0.20322654  0.17479906  0.11948168     0.45100
N118        N  0.28767025  0.29243814  0.17121132    -0.23100
C119        C  0.21524982  0.28443904  0.33281695    -0.04000
N120        N  0.31284685  0.30350444  0.26948985    -0.44200
N121        N  0.21357179  0.16980223  0.15888582    -0.44400
C122        C  0.20592429  0.31176127  0.31756577     0.44900
N123        N  0.22604488  0.21232161  0.29602080     0.03800
N124        N  0.22846743  0.29181270  0.17340204    -0.23100
N125        N  0.28903371  0.26904146  0.29725945    -0.23600
N126        N  0.22818938  0.27282578  0.14275476     0.03400
H127        H  0.19975002  0.32375986  0.19093063     0.09300
H128        H  0.21286325  0.21150285  0.07367590     0.09400
N129        N  0.22544685  0.19334954  0.26532708    -0.23600
N130        N  0.28774974  0.21262267  0.14205586    -0.23200
N131        N  0.23118413  0.29337485  0.26928466     0.03800
C132        C  0.31097634  0.17380076  0.31971959     0.45200
C133        C  0.30501710  0.31286550  0.16114857    -0.04500
N134        N  0.22944390  0.21054182  0.13814036    -0.23200
H135        H  0.31617611  0.22502664  0.09260302     0.09300
N136        N  0.29991203  0.19816831  0.33238900    -0.44500
H137        H  0.30756953  0.33184080  0.17911816     0.09300
C138        C  0.19161998  0.29547158  0.13286665     0.45000
C139        C  0.31128326  0.27010136  0.32167138    -0.04000
Co140      Co  0.25942283  0.29210743  0.22028939     0.73800
N141        N  0.30258266  0.28237330  0.10655367    -0.44200
C142        C  0.18866551  0.19116885  0.30642368     0.45300
N143        N  0.21702122  0.31587124  0.27844289    -0.44200
Co144      Co  0.25801689  0.24268290  0.13976386     0.73900
C145        C  0.21395418  0.20177368  0.10524792    -0.04500
C146        C  0.30044734  0.16777869  0.27732823    -0.04100
N147        N  0.23079795  0.27461287  0.30055154    -0.23600
N148        N  0.31019772  0.17755624  0.17059875    -0.44400
H149        H  0.19553665  0.16250167  0.24834019     0.09300
C150        C  0.20589360  0.30724748  0.16962524    -0.04500
Cl151      Cl  0.25782071  0.24167836  0.21951682    -0.47500
C152        C  0.31506597  0.30614267  0.11847525     0.45100
H153        H  0.21304550  0.27496250  0.36444177     0.09300
N154        N  0.20639212  0.27412506  0.11811382    -0.44200
C155        C  0.24248471  0.47534860  0.43601411     0.04700
C156        C  0.24037185  0.47638263  0.48150419     0.04700
C157        C  0.25321138  0.49785972  0.50410910    -0.15800
C158        C  0.27300333  0.01538383  0.48625293     0.04700
C159        C  0.27399704  0.01519579  0.44064796     0.04700
C160        C  0.25883459  0.49520100  0.41438717    -0.15800
H161        H  0.26048288  0.49468345  0.37952158     0.06700
H162        H  0.25165544  0.49843742  0.53900690     0.06700
C163        C  0.48969816  0.22596607  0.98448309     0.04700
C164        C  0.48937534  0.22571609  0.93882363     0.04700
C165        C  0.99319504  0.25403921  0.92391215    -0.15800
C166        C  0.01381888  0.27008592  0.94289830     0.04700
C167        C  0.01992579  0.26592130  0.98706939     0.04700
C168        C  0.00742719  0.24395702  0.00990032    -0.15800
H169        H  0.01210540  0.24077919  0.04378245     0.06700
H170        H  0.50478700  0.24553653  0.88087208     0.06700
C171        C  0.48202357  0.25406236  0.43196753     0.04700
C172        C  0.47713516  0.24883472  0.47629260     0.04700
C173        C  0.00496032  0.24271086  0.50047015    -0.15800
C174        C  0.02638413  0.22872255  0.47967275     0.04700
C175        C  0.02731692  0.22861863  0.43403879     0.04700
C176        C  0.00688262  0.24219384  0.41033801    -0.15800
H177        H  0.00762631  0.24202760  0.37538347     0.06700
H178        H  0.00424429  0.24299649  0.53540455     0.06700
C179        C  0.27490851  0.47736316  0.97824043     0.04700
C180        C  0.27062882  0.47435444  0.93327961     0.04700
C181        C  0.25249628  0.49217500  0.91176253    -0.15800
C182        C  0.24328131  0.01617333  0.94088116     0.04700
C183        C  0.24317517  0.01658552  0.98652275     0.04700
C184        C  0.25875798  0.49659516  0.00090796    -0.15800
H185        H  0.26066869  0.49791982  0.03568526     0.06700
H186        H  0.25046833  0.49068417  0.87700417     0.06700
C187        C  0.36470940  0.42300891  0.83222564     0.82700
N188        N  0.35331782  0.39872717  0.82071625    -0.75600
C189        C  0.32832785  0.39185284  0.83501225     0.85100
N190        N  0.31442287  0.40949913  0.86102127    -0.75600
C191        C  0.32595614  0.43407578  0.87282593     0.85200
N192        N  0.35120364  0.44065430  0.85843643    -0.77300
C193        C  0.38745465  0.16510321  0.87311032     0.82700
N194        N  0.39798230  0.13992310  0.86319492    -0.75600
C195        C  0.42431751  0.13401179  0.87193045     0.85100
N196        N  0.44051872  0.15382011  0.88972125    -0.75600
C197        C  0.43005022  0.17922748  0.89980430     0.85200
N198        N  0.40346863  0.18462311  0.89156917    -0.77300
C199        C  0.19323056  0.05311007  0.86540865     0.82700
N200        N  0.16738293  0.04621792  0.85498985    -0.75600
C201        C  0.15108123  0.06518230  0.83556750     0.85100
N202        N  0.16050906  0.09075387  0.82585088    -0.75600
C203        C  0.18619213  0.09777721  0.83560504     0.85200
N204        N  0.20273311  0.07912202  0.85583234    -0.77300
C205        C  0.08051984  0.35537725  0.85892745     0.82700
N206        N  0.06383023  0.33661369  0.87885702    -0.75600
C207        C  0.07380024  0.31150925  0.89221082     0.85100
N208        N  0.10042122  0.30540708  0.88514444    -0.75600
C209        C  0.11694145  0.32404445  0.86485334     0.85200
N210        N  0.10685140  0.34887088  0.85167829    -0.77300
C211        C  0.08653974  0.12864214  0.55853179     0.82700
N212        N  0.06773657  0.14412383  0.53729884    -0.75600
C213        C  0.07311850  0.17095026  0.52584688     0.85100
N214        N  0.09779816  0.18218319  0.53545444    -0.73200
C215        C  0.11685760  0.16635602  0.55604042     0.85200
N216        N  0.11095018  0.13984259  0.56793282    -0.77300
C217        C  0.32600844  0.09609036  0.59613005     0.82700
N218        N  0.35102615  0.08893594  0.60971445    -0.75600
C219        C  0.36074455  0.06323066  0.60239813     0.85100
N220        N  0.34535935  0.04430805  0.58142657    -0.75600
C221        C  0.32023925  0.05138195  0.56708995     0.85200
N222        N  0.31051891  0.07747039  0.57440149    -0.77300
C223        C  0.18837923  0.30149186  0.81133209     0.44900
N224        N  0.20531025  0.27522217  0.76264747     0.03800
C225        C  0.32492833  0.19937951  0.76949335    -0.04100
H226        H  0.33330356  0.30734271  0.73531118     0.09300
C227        C  0.29470405  0.28674573  0.59358206    -0.04400
Co228      Co  0.25578988  0.24650687  0.79154821     0.74200
N229        N  0.30267824  0.27740437  0.75447735    -0.23600
Co230      Co  0.30333818  0.24473379  0.70902060     0.74100
C231        C  0.32159588  0.29652600  0.60642288     0.45000
N232        N  0.22481640  0.27657580  0.63518848     0.03400
N233        N  0.30389355  0.27277525  0.65829145     0.03500
N234        N  0.29571705  0.20207702  0.82537872    -0.44500
H235        H  0.22429601  0.29287953  0.85693060     0.09300
N236        N  0.28433860  0.27761306  0.78579560     0.03800
N237        N  0.30005666  0.21219905  0.66360459     0.03500
C238        C  0.30400362  0.17447430  0.62824960     0.45100
N239        N  0.20650211  0.27745863  0.66650549    -0.23100
C240        C  0.22636734  0.19292393  0.81726785    -0.04000
N241        N  0.18383077  0.29029176  0.77251290    -0.44200
N242        N  0.31470431  0.18912014  0.66116734    -0.44400
C243        C  0.20411648  0.17699102  0.80046287     0.44900
N244        N  0.28744458  0.21747506  0.79206395     0.03800
N245        N  0.20276510  0.21705272  0.66637076    -0.23100
N246        N  0.22381176  0.27508400  0.79316185    -0.23600
N247        N  0.21980412  0.21675674  0.63365510     0.03400
H248        H  0.16242502  0.20116927  0.67548117     0.09300
H249        H  0.26739110  0.18437692  0.58542335     0.09400
N250        N  0.30462952  0.21666742  0.75959445    -0.23600
N251        N  0.28532090  0.27218917  0.62787536    -0.23200
N252        N  0.20775664  0.21430580  0.76274331     0.03800
C253        C  0.30565213  0.31560222  0.79391050     0.45200
C254        C  0.19250278  0.30127017  0.66208578    -0.04500
N255        N  0.28035574  0.21274206  0.63464170    -0.23200
H256        H  0.28529683  0.28758039  0.56210141     0.09300
N257        N  0.28533847  0.30008031  0.80987623    -0.44500
H258        H  0.17675421  0.30853782  0.68348928     0.09300
C259        C  0.18571690  0.19225206  0.61333846     0.45000
C260        C  0.21487414  0.29116382  0.82558871    -0.04000
Co261      Co  0.20509975  0.24592361  0.71463669     0.73800
N262        N  0.22440669  0.29861584  0.60943388    -0.44200
C263        C  0.31893784  0.18949809  0.81283178     0.45300
N264        N  0.19349288  0.19096760  0.76629401    -0.44200
Co265      Co  0.25252472  0.24459665  0.63209546     0.73900
C266        C  0.28134823  0.18983649  0.61080339    -0.04500
C267        C  0.31729140  0.30093922  0.75711768    -0.04100
N268        N  0.22727679  0.21543124  0.79190592    -0.23600
N269        N  0.32589492  0.28662312  0.64650493    -0.44400
H270        H  0.34322365  0.19673763  0.75068927     0.09300
C271        C  0.18098771  0.20180603  0.65686042    -0.04500
Cl272      Cl  0.25418858  0.24546018  0.71179482    -0.47500
C273        C  0.20446430  0.31489319  0.62419774     0.45100
H274        H  0.24053032  0.18776230  0.84270034     0.09300
N275        N  0.20991543  0.20276482  0.60041919    -0.44200
C276        C  0.39167122  0.31981300  0.54756510     0.82700
N277        N  0.39896170  0.34649733  0.55533092    -0.75600
C278        C  0.42406947  0.35574390  0.54475546     0.85100
N279        N  0.44214038  0.33804044  0.52664581    -0.75600
C280        C  0.43530386  0.31107777  0.51919007     0.85200
N281        N  0.40994710  0.30189841  0.52989429    -0.77300
C282        C  0.14817581  0.42318548  0.58236694     0.82700
N283        N  0.16407912  0.44322843  0.56463394    -0.75600
C284        C  0.19039317  0.43768212  0.55524128     0.85100
N285        N  0.20079597  0.41200466  0.56429065    -0.75600
C286        C  0.18468548  0.39224111  0.58282337     0.85200
N287        N  0.15848190  0.39788231  0.59154948    -0.77300
C288        C  0.43933490  0.44251653  0.78714313     0.44900
N289        N  0.47520848  0.44608582  0.74919474     0.03800
C290        C  0.05831619  0.06223893  0.76906633    -0.04100
H291        H  0.46237798  0.08834457  0.75359726     0.09300
C292        C  0.45359440  0.02446456  0.61552465    -0.04400
Co293      Co  0.00734798  0.99773693  0.80484110     0.74200
N294        N  0.47888778  0.04745588  0.76385890    -0.23600
Co295      Co  0.00567537  0.04500056  0.71957302     0.74100
C296        C  0.43896410  0.04769024  0.63330944     0.45000
N297        N  0.47793442  0.45829294  0.62035378     0.03400
N298        N  0.47594002  0.04296409  0.66825399     0.03500
N299        N  0.05799520  0.03060400  0.82375652    -0.44500
H300        H  0.44637755  0.97943830  0.84635267     0.09300
N301        N  0.47807786  0.02974629  0.79650075     0.03800
N302        N  0.03455431  0.04457638  0.67101775     0.03500
C303        C  0.06227382  0.05948253  0.62272054     0.45100
N304        N  0.47740406  0.44082553  0.65334541    -0.23100
C305        C  0.04580652  0.45252002  0.80772990    -0.04000
N306        N  0.45275663  0.43118172  0.75364730    -0.44200
N307        N  0.04999347  0.06598910  0.66005942    -0.44400
C308        C  0.05482062  0.42469024  0.79565029     0.44900
N309        N  0.03631504  0.02839712  0.79920540     0.03800
N310        N  0.03247819  0.44113204  0.64924162    -0.23100
N311        N  0.47659199  0.46644178  0.77752594    -0.23600
N312        N  0.03328929  0.45950017  0.61721333     0.03400
H313        H  0.06025310  0.40888132  0.66952193     0.09300
H314        H  0.05532657  0.02094107  0.58070395     0.09400
N315        N  0.03599301  0.04644399  0.76671761    -0.23600
N316        N  0.47605283  0.02294796  0.63925492    -0.23200
N317        N  0.03014094  0.44172598  0.74507821     0.03800
C318        C  0.45290223  0.06407336  0.81563498     0.45200
C319        C  0.46026176  0.42008062  0.64486458    -0.04500
N320        N  0.03524592  0.02452513  0.64242924    -0.23200
H321        H  0.44764023  0.01006756  0.59070094     0.09300
N322        N  0.46331631  0.03937677  0.82909856    -0.44500
H323        H  0.45788108  0.40137959  0.66419012     0.09300
C324        C  0.06908034  0.43562672  0.60914091     0.45000
C325        C  0.45477277  0.46575971  0.80295824    -0.04000
Co326      Co  0.50571986  0.44174890  0.70219919     0.73800
N327        N  0.46253697  0.44964661  0.58799191    -0.44200
C328        C  0.07246110  0.05173802  0.80705897     0.45300
N329        N  0.04391840  0.41936387  0.75691123    -0.44200
Co330      Co  0.00800892  0.99142570  0.64642360     0.73900
C331        C  0.05227302  0.03208295  0.61046186    -0.04500
C332        C  0.46335562  0.06941867  0.77268194    -0.04100
N333        N  0.03061059  0.46140641  0.77433056    -0.23600
N334        N  0.45351198  0.05810026  0.66631780    -0.44400
H335        H  0.06447919  0.07803175  0.74597175     0.09300
C336        C  0.05454712  0.42502087  0.64676825    -0.04500
Cl337      Cl  0.00758259  0.99458609  0.72558207    -0.47500
C338        C  0.45024441  0.42597609  0.60180038     0.45100
H339        H  0.04767480  0.46286281  0.83840763     0.09300
N340        N  0.05509086  0.45717608  0.59280185    -0.44200
C341        C  0.09679650  0.43100722  0.59912598    -0.10800
C342        C  0.12035732  0.42822411  0.59105708    -0.12400
C343        C  0.43235565  0.38325363  0.55744516    -0.10800
C344        C  0.43976861  0.40458608  0.57410989    -0.12400
C345        C  0.19955108  0.34239831  0.60811380    -0.10800
C346        C  0.19479097  0.36546143  0.59488248    -0.12400
C347        C  0.34394453  0.30442839  0.57876007    -0.10800
C348        C  0.36522112  0.31050301  0.56154632    -0.12400
C349        C  0.31114120  0.14672130  0.61655630    -0.10800
C350        C  0.31648240  0.12339025  0.60582404    -0.12400
C351        C  0.41113668  0.05352041  0.62480171    -0.10800
C352        C  0.38782141  0.05698190  0.61519181    -0.12400
C353        C  0.07971386  0.10154106  0.57528801    -0.10800
C354        C  0.07297948  0.08067318  0.59443669    -0.12400
C355        C  0.14283066  0.17755978  0.56826518    -0.10800
C356        C  0.16393386  0.18433730  0.58499816    -0.12400
C357        C  0.14440104  0.31678011  0.85340252    -0.10800
C358        C  0.16608384  0.31071194  0.83776570    -0.12400
C359        C  0.07040191  0.38152046  0.84263236    -0.10800
C360        C  0.06360707  0.40256964  0.82397971    -0.12400
C361        C  0.19499238  0.12510807  0.82389114    -0.10800
C362        C  0.19874658  0.14870478  0.81218896    -0.12400
C363        C  0.10016861  0.05603723  0.81742596    -0.10800
C364        C  0.12361011  0.05896887  0.82611599    -0.12400
C365        C  0.43511102  0.10734946  0.85923268    -0.10800
C366        C  0.44295210  0.08593705  0.84312845    -0.12400
C367        C  0.33958871  0.17910494  0.84161470    -0.10800
C368        C  0.36039020  0.17213902  0.85925433    -0.12400
C369        C  0.31181995  0.34290911  0.80906594    -0.10800
C370        C  0.31743037  0.36562974  0.82229628    -0.12400
C371        C  0.39092209  0.42981230  0.81605104    -0.10800
C372        C  0.41301121  0.43479957  0.80179808    -0.12400
C373        C  0.22960441  0.03833275  0.91533905    -0.14000
C374        C  0.21028303  0.03194846  0.88677639    -0.29200
H375        H  0.23318034  0.05993083  0.92362940     0.15000
H376        H  0.20496961  0.01023838  0.88213156     0.15600
C377        C  0.28479585  0.45317354  0.90717657    -0.14000
C378        C  0.31169545  0.45385796  0.90108573    -0.29200
H379        H  0.27250916  0.43824086  0.88986541     0.15000
H380        H  0.32349374  0.47029967  0.91586329     0.15600
C381        C  0.04742358  0.21407636  0.50609194    -0.14000
C382        C  0.05231981  0.18671481  0.50127222    -0.29200
H383        H  0.05808862  0.22560440  0.53074227     0.15000
H384        H  0.03956647  0.17494064  0.47952094     0.15600
C385        C  0.45595070  0.26483940  0.50020732    -0.14000
C386        C  0.45557023  0.29290231  0.49801997    -0.29200
H387        H  0.44163454  0.25377156  0.52078259     0.15000
H388        H  0.47168573  0.30342746  0.48028479     0.15600
C389        C  0.05669883  0.29099388  0.91596813    -0.14000
C390        C  0.02930446  0.29072748  0.91596685    -0.29200
H391        H  0.06733385  0.27499937  0.93428300     0.15000
H392        H  0.01820794  0.30496010  0.89508786     0.15600
C393        C  0.47341387  0.20448433  0.91464535    -0.14000
C394        C  0.44661446  0.20082604  0.92135186    -0.29200
H395        H  0.48372778  0.19231639  0.89026405     0.15000
H396        H  0.43606839  0.21494680  0.94279587     0.15600
C397        C  0.28747605  0.03706545  0.51124819    -0.14000
C398        C  0.30394212  0.03041177  0.54421372    -0.29200
H399        H  0.28624381  0.05854346  0.50021817     0.15000
H400        H  0.30724907  0.00864730  0.55232910     0.15600
C401        C  0.20701393  0.45969564  0.53507753    -0.14000
C402        C  0.22622169  0.45399087  0.50589490    -0.29200
H403        H  0.20154383  0.48120744  0.54103675     0.15000
H404        H  0.22977635  0.43256420  0.49663870     0.15600
C405        C  0.20054563  0.04116890  0.00367215    -0.14000
C406        C  0.22734618  0.03795094  0.01060397    -0.29200
H407        H  0.19047135  0.02697381  0.98188427     0.15000
H408        H  0.23744722  0.05008889  0.03514166     0.15600
C409        C  0.18643413  0.13157941  0.07456538    -0.10800
C410        C  0.19366673  0.15248473  0.09268162    -0.12400
C411        C  0.04977225  0.21470122  0.41068165    -0.14000
C412        C  0.04462207  0.19628253  0.37956445    -0.29200
H413        H  0.07040528  0.21749606  0.42202997     0.15000
H414        H  0.02370422  0.19168540  0.37131447     0.15600
C415        C  0.13824913  0.18143218  0.33023914    -0.10800
C416        C  0.16142221  0.18627121  0.32059015    -0.12400
C417        C  0.31801610  0.03684811  0.42108728    -0.14000
C418        C  0.29088209  0.03574149  0.41625979    -0.29200
H419        H  0.32800470  0.02108621  0.44076867     0.15000
H420        H  0.28083060  0.04997793  0.39407004     0.15600
C421        C  0.33095133  0.13146254  0.36352420    -0.10800
C422        C  0.32226611  0.15271125  0.34765418    -0.12400
C423        C  0.03674139  0.28666805  0.01034961    -0.14000
C424        C  0.05626441  0.27962928  0.03854856    -0.29200
H425        H  0.03402905  0.30844609  0.00175646     0.15000
H426        H  0.06064049  0.25781535  0.04463369     0.15600
C427        C  0.16446584  0.30110610  0.11904875    -0.10800
C428        C  0.14171309  0.30536488  0.10669413    -0.12400
C429        C  0.09036964  0.06094501  0.07323937    -0.10800
C430        C  0.11170898  0.06814612  0.05748476    -0.12400
C431        C  0.06535266  0.08842597  0.29655466    -0.10800
C432        C  0.07109456  0.11133529  0.30839709    -0.12400
C433        C  0.42536184  0.05957059  0.33908270    -0.10800
C434        C  0.40457260  0.06568223  0.35747520    -0.12400
C435        C  0.06739742  0.39795294  0.10085669    -0.10800
C436        C  0.07259567  0.37448321  0.09035554    -0.12400
C437        C  0.45676311  0.21093300  0.04022497    -0.14000
C438        C  0.47528011  0.20437711  0.01015202    -0.29200
H439        H  0.45149689  0.23258633  0.04530079     0.15000
H440        H  0.47883505  0.18272877  0.00226827     0.15600
C441        C  0.45810877  0.09453332  0.11365566    -0.10800
C442        C  0.45124796  0.11767251  0.10386098    -0.12400
C443        C  0.37597504  0.17920375  0.11775505    -0.10800
C444        C  0.35266124  0.18184073  0.12830390    -0.12400
C445        C  0.22710179  0.45408618  0.41084855    -0.14000
C446        C  0.19997169  0.45119853  0.41527346    -0.29200
H447        H  0.23805262  0.44119988  0.38814138     0.15000
H448        H  0.18909464  0.46596863  0.43518432     0.15600
C449        C  0.09306607  0.42746003  0.33401513    -0.10800
C450        C  0.11402441  0.42151571  0.35215309    -0.12400
C451        C  0.18843014  0.35669843  0.35717665    -0.10800
C452        C  0.19602849  0.33477831  0.34259724    -0.12400
C453        C  0.29898165  0.43379797  0.00062343    -0.14000
C454        C  0.29663383  0.46170678  0.00192919    -0.29200
H455        H  0.28342606  0.42193571  0.98421456     0.15000
H456        H  0.31064422  0.47352097  0.02157170     0.15600
C457        C  0.33077271  0.34810253  0.06907620    -0.10800
C458        C  0.32476320  0.32712574  0.08871043    -0.12400
C459        C  0.39330022  0.42469753  0.05357403    -0.10800
C460        C  0.41501474  0.43263424  0.06700300    -0.12400
C461        C  0.46958871  0.28926344  0.37627011    -0.14000
C462        C  0.46213973  0.27007733  0.40574727    -0.29200
H463        H  0.49092618  0.29397001  0.37151522     0.15000
H464        H  0.44075964  0.26715451  0.41294545     0.15600
C465        C  0.37781177  0.30416908  0.32033803    -0.10800
C466        C  0.35442916  0.29908800  0.31298150    -0.12400
C467        C  0.44480833  0.37481072  0.30091432    -0.10800
C468        C  0.44830494  0.39843340  0.28933231    -0.12400
C469        C  0.40202211  0.81247979  0.34036326     0.82700
N470        N  0.42043124  0.79594283  0.36096731    -0.75600
C471        C  0.44656053  0.80488531  0.36517471     0.85100
N472        N  0.45384922  0.83013943  0.34881084    -0.75600
C473        C  0.43520953  0.84647115  0.32892671     0.85200
N474        N  0.40948863  0.83759917  0.32472393    -0.77300
C475        C  0.37474154  0.91636417  0.05216227     0.82700
N476        N  0.36473574  0.89123653  0.06428908    -0.75600
C477        C  0.33823715  0.88505107  0.05788115     0.85100
N478        N  0.32136772  0.90447603  0.04018190    -0.75600
C479        C  0.33133902  0.92982532  0.02792672     0.85200
N480        N  0.35805776  0.93556503  0.03392338    -0.77300
C481        C  0.17583637  0.88623687  0.37292729     0.82700
N482        N  0.15014290  0.89268547  0.36123084    -0.75600
C483        C  0.14015120  0.91849264  0.36791396     0.85100
N484        N  0.15610484  0.93816092  0.38630190    -0.75600
C485        C  0.18216075  0.93209609  0.39754395     0.85200
N486        N  0.19204237  0.90603675  0.39053262    -0.77300
C487        C  0.42859023  0.64262161  0.07260528     0.82700
N488        N  0.44182858  0.66150813  0.04742091    -0.75600
C489        C  0.42991526  0.68635990  0.03788941     0.85100
N490        N  0.40481618  0.69199928  0.05370423    -0.75600
C491        C  0.39194219  0.67303718  0.07922109     0.85200
N492        N  0.40379922  0.64846861  0.08850401    -0.77300
C493        C  0.07121496  0.93874052  0.30349328     0.44900
N494        N  0.05443093  0.96376752  0.25235036     0.03800
C495        C  0.43414665  0.54251163  0.24816084    -0.04100
H496        H  0.42662683  0.93583093  0.23015404     0.09300
C497        C  0.47118634  0.95174843  0.09387809    -0.04400
Co498      Co  0.00350862  0.99228756  0.27986496     0.74200
N499        N  0.45833212  0.96348125  0.25161247    -0.23600
Co500      Co  0.46092868  0.99615133  0.20625486     0.74100
C501        C  0.44418810  0.94212450  0.10672331     0.45000
N502        N  0.03528382  0.96181311  0.12440568     0.03400
N503        N  0.46013926  0.96836272  0.15594535     0.03500
N504        N  0.46342180  0.54013272  0.30381288    -0.44500
H505        H  0.03480577  0.94762378  0.34771638     0.09300
N506        N  0.97556494  0.96036310  0.27669342     0.03800
N507        N  0.45909153  0.52842538  0.14260820     0.03500
C508        C  0.45459108  0.56560087  0.10524636     0.45100
N509        N  0.05347390  0.96133275  0.15575376    -0.23100
C510        C  0.03675017  0.54694038  0.30570637    -0.04000
N511        N  0.07609229  0.94930980  0.26385338    -0.44200
N512        N  0.44414928  0.55121120  0.13903815    -0.44400
C513        C  0.05973013  0.56241905  0.28924959     0.44900
N514        N  0.47178077  0.52482727  0.27098315     0.03800
N515        N  0.06326150  0.52235310  0.15753246    -0.23100
N516        N  0.03572902  0.96419680  0.28272471    -0.23600
N517        N  0.04695021  0.52350984  0.12399096     0.03400
H518        H  0.10355875  0.53756738  0.16899785     0.09300
H519        H  0.49125970  0.55572731  0.06242847     0.09400
N520        N  0.45458220  0.52540264  0.23864644    -0.23600
N521        N  0.47946945  0.96784240  0.12660499    -0.23200
N522        N  0.05620370  0.52475522  0.25335468     0.03800
C523        C  0.45198188  0.92513172  0.29035005     0.45200
C524        C  0.06817425  0.93802582  0.15202649    -0.04500
N525        N  0.47873839  0.52769472  0.11346680    -0.23200
H526        H  0.97715539  0.94446445  0.05599839     0.09300
N527        N  0.97518599  0.93814353  0.30213577    -0.44500
H528        H  0.08406094  0.93121311  0.17364662     0.09300
C529        C  0.08182414  0.54787082  0.10577307     0.45000
C530        C  0.04448260  0.94881633  0.31639617    -0.04000
Co531      Co  0.05418476  0.99272896  0.20252861     0.73800
N532        N  0.03638130  0.93984784  0.09928708    -0.44200
C533        C  0.44009485  0.55243266  0.29116361     0.45300
N534        N  0.07080600  0.54786828  0.25644134    -0.44200
Co535      Co  0.00650965  0.99274614  0.12059529     0.73900
C536        C  0.47743625  0.55035514  0.08831499    -0.04500
C537        C  0.44224310  0.94097878  0.25314465    -0.04100
N538        N  0.03598296  0.52415236  0.28151591    -0.23600
N539        N  0.43861670  0.95370940  0.14498338    -0.44400
H540        H  0.41569396  0.54473648  0.22967683     0.09300
C541        C  0.08549704  0.53736895  0.14928566    -0.04500
Cl542      Cl  0.00500202  0.99232669  0.20031503    -0.47500
C543        C  0.05676933  0.92421811  0.11450744     0.45100
H544        H  0.02200672  0.55268928  0.32990585     0.09300
N545        N  0.05776179  0.53803259  0.09149198    -0.44200
C546        C  0.11440818  0.81584832  0.08936903     0.82700
N547        N  0.10268145  0.84049553  0.09760626    -0.75600
C548        C  0.07806071  0.84655094  0.08141058     0.85100
N549        N  0.06479690  0.82778807  0.05679510    -0.75600
C550        C  0.07652241  0.80278190  0.04824892     0.85200
N551        N  0.10156095  0.79694197  0.06433334    -0.77300
C552        C  0.37207913  0.57309125  0.35585382     0.82700
N553        N  0.36243364  0.59935467  0.35216888    -0.75600
C554        C  0.33658076  0.60521507  0.36374474     0.85100
N555        N  0.32001884  0.58447950  0.37829871    -0.75600
C556        C  0.32952511  0.55792165  0.38190069     0.85200
N557        N  0.35557468  0.55236470  0.37033605    -0.77300
C558        C  0.06472204  0.68269745  0.36374028     0.82700
N559        N  0.05734714  0.65743335  0.34798475    -0.75600
C560        C  0.07570020  0.64170066  0.32632416     0.85100
N561        N  0.10113485  0.65125632  0.32008251    -0.75600
C562        C  0.10853532  0.67632898  0.33531673     0.85200
N563        N  0.09047503  0.69209711  0.35734078    -0.77300
C564        C  0.15089453  0.57716464  0.05104790     0.82700
N565        N  0.17122471  0.56164820  0.03364419    -0.75600
C566        C  0.19582836  0.57354767  0.02495158     0.85100
N567        N  0.19983692  0.60084951  0.03416490    -0.75600
C568        C  0.17965685  0.61615380  0.05200600     0.85200
N569        N  0.15537060  0.60420166  0.06059879    -0.77300
C570        C  0.32426602  0.79498826  0.30933997     0.44900
N571        N  0.28845396  0.79286165  0.27072797     0.03800
C572        C  0.19880960  0.68449580  0.26436875    -0.04100
H573        H  0.29829851  0.65349505  0.25096660     0.09300
C574        C  0.30566957  0.71820394  0.11292346    -0.04400
Co575      Co  0.25479539  0.74441016  0.29842306     0.74200
N576        N  0.28080242  0.69364464  0.26286566    -0.23600
Co577      Co  0.25288301  0.69770385  0.21401950     0.74100
C578        C  0.31866411  0.69307178  0.12781439     0.45000
N579        N  0.28517749  0.78278955  0.14131552     0.03400
N580        N  0.28384593  0.69981483  0.16706082     0.03500
N581        N  0.20143387  0.71585556  0.31839220    -0.44500
H582        H  0.31224298  0.75696717  0.35013147     0.09300
N583        N  0.28143489  0.71051022  0.29603616     0.03800
N584        N  0.22476354  0.70063852  0.16503112     0.03500
C585        C  0.19871006  0.68656741  0.11439058     0.45100
N586        N  0.28594281  0.79991238  0.17415742    -0.23100
C587        C  0.21273479  0.78731817  0.33467085    -0.04000
N588        N  0.31134962  0.80702266  0.27543014    -0.44200
N589        N  0.20893070  0.67989193  0.15331271    -0.44400
C590        C  0.20376465  0.81513733  0.32135103     0.44900
N591        N  0.22301734  0.71679271  0.29310859     0.03800
N592        N  0.22681491  0.79981789  0.17648542    -0.23100
N593        N  0.28649432  0.77214894  0.29903131    -0.23600
N594        N  0.22684935  0.78190266  0.14435975     0.03400
H595        H  0.19735828  0.83057192  0.19614821     0.09300
H596        H  0.20972209  0.72420196  0.07136803     0.09400
N597        N  0.22206784  0.69882453  0.26107252    -0.23600
N598        N  0.28441044  0.72076771  0.13907443    -0.23200
N599        N  0.22944173  0.79829662  0.27237467     0.03800
C600        C  0.30747351  0.67649899  0.31354688     0.45200
C601        C  0.30237169  0.82120131  0.16444494    -0.04500
N602        N  0.22634088  0.72047064  0.13555126    -0.23200
H603        H  0.31136466  0.73242647  0.08721586     0.09300
N604        N  0.29667364  0.70055204  0.32794204    -0.44500
H605        H  0.30440484  0.83992966  0.18317742     0.09300
C606        C  0.19016971  0.80417355  0.13551741     0.45000
C607        C  0.30808841  0.77197661  0.32478647    -0.04000
Co608      Co  0.25779689  0.79828538  0.22351336     0.73800
N609        N  0.29966618  0.79211875  0.10800577    -0.44200
C610        C  0.18553996  0.69581727  0.30242520     0.45300
N611        N  0.21530146  0.82052262  0.28292722    -0.44200
Co612      Co  0.25574898  0.75157539  0.13945556     0.73900
C613        C  0.21048182  0.71343206  0.10215492    -0.04500
C614        C  0.29682343  0.67182972  0.27074243    -0.04100
N615        N  0.22855590  0.77851520  0.30205037    -0.23600
N616        N  0.30454789  0.68260107  0.16170131    -0.44400
H617        H  0.19177794  0.66884017  0.24226044     0.09300
C618        C  0.20397825  0.81499140  0.17357024    -0.04500
Cl619      Cl  0.25534898  0.74800661  0.21887169    -0.47500
C620        C  0.31160100  0.81596088  0.12079976     0.45100
H621        H  0.21003816  0.77675261  0.36536671     0.09300
N622        N  0.20529151  0.78365264  0.11949852    -0.44200
C623        C  0.24239560  0.97563804  0.44011308     0.04700
C624        C  0.24200214  0.97556713  0.48574053     0.04700
C625        C  0.25716889  0.99547714  0.50819648    -0.15800
C626        C  0.26919387  0.51775223  0.48263638     0.04700
C627        C  0.27209362  0.51649221  0.43730969     0.04700
C628        C  0.25857346  0.99539372  0.41803692    -0.15800
H629        H  0.25914107  0.99538542  0.38307077     0.06700
H630        H  0.25664301  0.99547938  0.54316953     0.06700
C631        C  0.48494276  0.72869086  0.97897300     0.04700
C632        C  0.47940027  0.73369325  0.93463789     0.04700
C633        C  0.00939728  0.74311397  0.91767381    -0.15800
C634        C  0.02637227  0.76052038  0.94217353     0.04700
C635        C  0.02112553  0.76316507  0.98703139     0.04700
C636        C  0.00085450  0.74686031  0.00657359    -0.15800
H637        H  0.99794074  0.74795114  0.04122989     0.06700
H638        H  0.49073997  0.75814668  0.87843380     0.06700
C639        C  0.48456680  0.75617684  0.44359155     0.04700
C640        C  0.48554354  0.75677246  0.48920541     0.04700
C641        C  0.00785490  0.74602969  0.50759059    -0.15800
C642        C  0.02889096  0.73192025  0.48579182     0.04700
C643        C  0.03100443  0.73479942  0.44045929     0.04700
C644        C  0.01387082  0.75335392  0.41862278    -0.15800
H645        H  0.01643281  0.75635831  0.38410375     0.06700
H646        H  0.00570126  0.74323698  0.54219322     0.06700
C647        C  0.27114410  0.97429870  0.98765797     0.04700
C648        C  0.27028259  0.97349451  0.94208362     0.04700
C649        C  0.25658257  0.99456201  0.91926755    -0.15800
C650        C  0.23794615  0.51269500  0.93392064     0.04700
C651        C  0.23987877  0.51386624  0.97938360     0.04700
C652        C  0.25741923  0.99575029  0.00945642    -0.15800
H653        H  0.25774196  0.99616370  0.04439003     0.06700
H654        H  0.25622967  0.99412563  0.88431660     0.06700
C655        C  0.35999083  0.92228796  0.83478979     0.82700
N656        N  0.35031524  0.89668333  0.82635246    -0.75600
C657        C  0.32466570  0.88977098  0.83748728     0.85100
N658        N  0.30848818  0.90861660  0.85767160    -0.75600
C659        C  0.31826222  0.93458545  0.86595389     0.85200
N660        N  0.34395924  0.94131448  0.85411453    -0.77300
C661        C  0.39327816  0.66363998  0.86384506     0.82700
N662        N  0.40088737  0.63780863  0.85139594    -0.75600
C663        C  0.42652794  0.62873037  0.85829443     0.85100
N664        N  0.44477437  0.64570832  0.87746977    -0.75600
C665        C  0.43766815  0.67184856  0.88947047     0.85200
N666        N  0.41178737  0.68090303  0.88240677    -0.77300
C667        C  0.18852123  0.54760640  0.85366071     0.82700
N668        N  0.16420101  0.53999365  0.83703722    -0.75600
C669        C  0.14885005  0.55888517  0.81543014     0.85100
N670        N  0.15777927  0.58518791  0.80981474    -0.75600
C671        C  0.18201936  0.59296448  0.82574665     0.85200
N672        N  0.19747210  0.57428625  0.84803233    -0.77300
C673        C  0.09209332  0.86310150  0.88200147     0.82700
N674        N  0.07199389  0.84711945  0.89885758    -0.75600
C675        C  0.07537120  0.81927976  0.90427165     0.85100
N676        N  0.09942694  0.80733795  0.89265488    -0.75600
C677        C  0.11983012  0.82351919  0.87610605     0.85200
N678        N  0.11586309  0.85123330  0.87036066    -0.77300
C679        C  0.09076970  0.62614992  0.54127900     0.82700
N680        N  0.07117101  0.64298135  0.52500897    -0.75600
C681        C  0.07524022  0.67085342  0.52140079     0.85100
N682        N  0.09945982  0.68189566  0.53392910    -0.73200
C683        C  0.11936238  0.66489608  0.54965851     0.85200
N684        N  0.11473786  0.63717387  0.55380941    -0.77300
C685        C  0.32984009  0.60029572  0.57864597     0.82700
N686        N  0.35576600  0.59369189  0.58823973    -0.75600
C687        C  0.36697453  0.57025735  0.57263306     0.85100
N688        N  0.35225078  0.55325072  0.54706738    -0.75600
C689        C  0.32606170  0.55951624  0.53746540     0.85200
N690        N  0.31479114  0.58321382  0.55335479    -0.77300
C691        C  0.18819270  0.79521042  0.81725278     0.44900
N692        N  0.20562218  0.77148623  0.76586742     0.03800
C693        C  0.32682559  0.69762313  0.76706506    -0.04100
H694        H  0.33284201  0.80536332  0.73885979     0.09300
C695        C  0.29620718  0.78757006  0.59650633    -0.04400
Co696      Co  0.25642465  0.74203784  0.79239018     0.74200
N697        N  0.30298726  0.77438902  0.75707415    -0.23600
Co698      Co  0.30380977  0.74296569  0.70945251     0.74100
C699        C  0.32314973  0.79676938  0.61047472     0.45000
N700        N  0.22558498  0.77690630  0.63817164     0.03400
N701        N  0.30452990  0.77233692  0.66079226     0.03500
N702        N  0.29847507  0.69885475  0.82414326    -0.44500
H703        H  0.22423906  0.78526150  0.86195413     0.09300
N704        N  0.28477009  0.77361256  0.78859145     0.03800
N705        N  0.30064476  0.71166855  0.66185717     0.03500
C706        C  0.30476184  0.67498955  0.62395189     0.45100
N707        N  0.20731823  0.77695571  0.66964361    -0.23100
C708        C  0.22625429  0.68761103  0.81449850    -0.04000
N709        N  0.18386241  0.78570271  0.77727160    -0.44200
N710        N  0.31543687  0.68878532  0.65777587    -0.44400
C711        C  0.20324821  0.67284395  0.79721839     0.44900
N712        N  0.28867694  0.71351052  0.79102749     0.03800
N713        N  0.20334322  0.71652771  0.66507821    -0.23100
N714        N  0.22410248  0.77027622  0.79640062    -0.23600
N715        N  0.22039651  0.71709617  0.63236935     0.03400
H716        H  0.16339442  0.69944818  0.67372858     0.09300
H717        H  0.26824946  0.68608933  0.58151870     0.09400
N718        N  0.30548127  0.71368203  0.75801554    -0.23600
N719        N  0.28623008  0.77252737  0.62996003    -0.23200
N720        N  0.20814707  0.71082857  0.76132909     0.03800
C721        C  0.30548390  0.81187421  0.79833761     0.45200
C722        C  0.19358366  0.80105158  0.66714513    -0.04500
N723        N  0.28097056  0.71297698  0.63289061    -0.23200
H724        H  0.28718930  0.78904013  0.56477990     0.09300
N725        N  0.28544675  0.79566421  0.81365359    -0.44500
H726        H  0.17796926  0.80780562  0.68920408     0.09300
C727        C  0.18681348  0.69215959  0.61112537     0.45000
C728        C  0.21488321  0.78478049  0.83043637    -0.04000
Co729      Co  0.20565158  0.74390233  0.71546697     0.73800
N730        N  0.22536508  0.79975976  0.61417754    -0.44200
C731        C  0.32225658  0.68771171  0.81072025     0.45300
N732        N  0.19301639  0.68802038  0.76398738    -0.44200
Co733      Co  0.25320049  0.74494251  0.63256390     0.73900
C734        C  0.28208121  0.69079073  0.60745137    -0.04500
C735        C  0.31718256  0.79813667  0.76071053    -0.04100
N736        N  0.22783362  0.71070401  0.79034798    -0.23600
N737        N  0.32679889  0.78611257  0.65021526    -0.44400
H738        H  0.34517538  0.69661781  0.74798242     0.09300
C739        C  0.18183960  0.70102898  0.65493457    -0.04500
Cl740      Cl  0.25475632  0.74345729  0.71247095    -0.47500
C741        C  0.20561342  0.81575765  0.63025264     0.45100
H742        H  0.24008128  0.68160942  0.83993807     0.09300
N743        N  0.21082655  0.70335420  0.59862026    -0.44200
C744        C  0.39459045  0.82196909  0.55790579     0.82700
N745        N  0.40069061  0.84863636  0.56792451    -0.75600
C746        C  0.42560513  0.85916350  0.55928999     0.85100
N747        N  0.44468783  0.84283171  0.54071521    -0.75600
C748        C  0.43913731  0.81587416  0.53113960     0.85200
N749        N  0.41394372  0.80534826  0.53992697    -0.77300
C750        C  0.15369431  0.92858970  0.60432498     0.82700
N751        N  0.16894742  0.94739004  0.58221649    -0.75600
C752        C  0.19345096  0.93984596  0.56600772     0.85100
N753        N  0.20271476  0.91341909  0.57256052    -0.75600
C754        C  0.18735078  0.89489179  0.59534617     0.85200
N755        N  0.16293362  0.90252596  0.61087396    -0.77300
C756        C  0.43748124  0.94182973  0.80359197     0.44900
N757        N  0.47390694  0.94715006  0.76737497     0.03800
C758        C  0.05921371  0.55608443  0.73664603    -0.04100
H759        H  0.46335175  0.58602398  0.73216424     0.09300
C760        C  0.45644545  0.52348813  0.59265667    -0.04400
Co761      Co  0.00382000  0.49497459  0.77029089     0.74200
N762        N  0.48144055  0.54577927  0.74267679    -0.23600
Co763      Co  0.00566742  0.54309389  0.68627658     0.74100
C764        C  0.44308876  0.54815377  0.60847964     0.45000
N765        N  0.47718700  0.96095450  0.63931391     0.03400
N766        N  0.47845089  0.54095870  0.64654527     0.03500
N767        N  0.05673237  0.52377979  0.79034065    -0.44500
H768        H  0.45014039  0.48015608  0.82849646     0.09300
N769        N  0.48107316  0.52814647  0.77545181     0.03800
N770        N  0.03463854  0.54095959  0.63822515     0.03500
C771        C  0.06416846  0.55443157  0.59172209     0.45100
N772        N  0.47672148  0.94314891  0.67181389    -0.23100
C773        C  0.05451494  0.96030600  0.84057775    -0.04000
N774        N  0.45182969  0.93156774  0.77029357    -0.44200
N775        N  0.05190543  0.56113441  0.62891353    -0.44400
C776        C  0.06676413  0.93398347  0.82750187     0.44900
N777        N  0.03507581  0.52328042  0.76542869     0.03800
N778        N  0.03993935  0.94499083  0.68463552    -0.23100
N779        N  0.47423685  0.96722407  0.79628726    -0.23600
N780        N  0.03917787  0.96308064  0.65222872     0.03400
H781        H  0.07043522  0.91548216  0.70535514     0.09300
H782        H  0.05482441  0.51735222  0.54757320     0.09400
N783        N  0.03597198  0.54178040  0.73357451    -0.23600
N784        N  0.47807992  0.52061877  0.61810725    -0.23200
N785        N  0.03771915  0.94681737  0.78002859     0.03800
C786        C  0.45448184  0.56129632  0.79424776     0.45200
C787        C  0.45959869  0.92247673  0.66286834    -0.04500
N788        N  0.03414189  0.52141242  0.60881358    -0.23200
H789        H  0.45059896  0.50964983  0.56703782     0.09300
N790        N  0.46566136  0.53704539  0.80769929    -0.44500
H791        H  0.45716128  0.90362431  0.68181435     0.09300
C792        C  0.07700290  0.94263324  0.64465696     0.45000
C793        C  0.45196430  0.96545515  0.82074550    -0.04000
Co794      Co  0.50474853  0.94421397  0.72085664     0.73800
N795        N  0.46171187  0.95269662  0.60682076    -0.44200
C796        C  0.07257082  0.54408942  0.77430695     0.45300
N797        N  0.05491412  0.92679478  0.79026271    -0.44200
Co798      Co  0.00452306  0.49033349  0.61165587     0.73900
C799        C  0.05212375  0.52820720  0.57767774    -0.04500
C800        C  0.46516636  0.56724802  0.75145012    -0.04100
N801        N  0.03686433  0.96667832  0.80892386    -0.23600
N802        N  0.45741419  0.55790293  0.64220179    -0.44400
H803        H  0.06631048  0.57195137  0.71438195     0.09300
C804        C  0.06337098  0.93093041  0.68242405    -0.04500
Cl805      Cl  0.00397140  0.49264602  0.69106358    -0.47500
C806        C  0.44946407  0.92887950  0.62003780     0.45100
H807        H  0.05687651  0.97152362  0.87041231     0.09300
N808        N  0.06110916  0.96254414  0.62777221    -0.44200
C809        C  0.10445487  0.93864847  0.63179293    -0.10800
C810        C  0.12729268  0.93543005  0.61951081    -0.12400
C811        C  0.43252300  0.88661463  0.57392272    -0.10800
C812        C  0.43925068  0.90778217  0.59168340    -0.12400
C813        C  0.20085832  0.84374068  0.61606098    -0.10800
C814        C  0.19648008  0.86727212  0.60455885    -0.12400
C815        C  0.34611531  0.80499713  0.58417097    -0.10800
C816        C  0.36793485  0.81151533  0.56903835    -0.12400
C817        C  0.31280743  0.64807709  0.60921364    -0.10800
C818        C  0.31914203  0.62581639  0.59490288    -0.12400
C819        C  0.41674741  0.55744369  0.59574789    -0.10800
C820        C  0.39416702  0.56332679  0.58438455    -0.12400
C821        C  0.08469856  0.59748188  0.55085465    -0.10800
C822        C  0.07698970  0.57552514  0.56559181    -0.12400
C823        C  0.14480520  0.67597811  0.56487271    -0.10800
C824        C  0.16542681  0.68335392  0.58256682    -0.12400
C825        C  0.14513618  0.81163576  0.86147434    -0.10800
C826        C  0.16597854  0.80411812  0.84436189    -0.12400
C827        C  0.08666433  0.89160831  0.87061216    -0.10800
C828        C  0.07927597  0.91328112  0.85460344    -0.12400
C829        C  0.19084138  0.62097667  0.81786764    -0.10800
C830        C  0.19600617  0.64475065  0.80826260    -0.12400
C831        C  0.09983192  0.54834501  0.78772930    -0.10800
C832        C  0.12256945  0.55186770  0.80009584    -0.12400
C833        C  0.43508084  0.60237423  0.84111960    -0.10800
C834        C  0.44314446  0.58208780  0.82223552    -0.12400
C835        C  0.34440236  0.67938283  0.83841988    -0.10800
C836        C  0.36615690  0.67300481  0.85367222    -0.12400
C837        C  0.31052418  0.83950021  0.81350244    -0.10800
C838        C  0.31512960  0.86265269  0.82611474    -0.12400
C839        C  0.38724679  0.92898941  0.82343530    -0.10800
C840        C  0.41030320  0.93422617  0.81403743    -0.12400
C841        C  0.22185959  0.53360374  0.90911915    -0.14000
C842        C  0.20471500  0.52662480  0.87747597    -0.29200
H843        H  0.22376396  0.55531263  0.91766060     0.15000
H844        H  0.20121222  0.50480599  0.87067693     0.15600
C845        C  0.28355591  0.95060330  0.91796973    -0.14000
C846        C  0.30152715  0.95616085  0.88652120    -0.29200
H847        H  0.28082376  0.92931706  0.92924921     0.15000
H848        H  0.30622597  0.97771621  0.87872049     0.15600
C849        C  0.04901901  0.71497880  0.51068132    -0.14000
C850        C  0.05361621  0.68808469  0.50146284    -0.29200
H851        H  0.06024012  0.72485246  0.53644724     0.15000
H852        H  0.04050327  0.67791843  0.47834024     0.15600
C853        C  0.46438600  0.77187632  0.51454223    -0.14000
C854        C  0.46030008  0.79938792  0.50873857    -0.29200
H855        H  0.45268552  0.76047915  0.53858036     0.15000
H856        H  0.47393030  0.81076528  0.48736637     0.15600
C857        C  0.05264204  0.80317742  0.92370555    -0.14000
C858        C  0.04920581  0.77553301  0.92011860    -0.29200
H859        H  0.03743668  0.81499952  0.94106728     0.15000
H860        H  0.06277137  0.76373277  0.89962331     0.15600
C861        C  0.45848235  0.71734860  0.91073475    -0.14000
C862        C  0.45829728  0.68930187  0.91124613    -0.29200
H863        H  0.44371440  0.72856961  0.89132040     0.15000
H864        H  0.47474259  0.67840286  0.92741208     0.15600
C865        C  0.28344654  0.53901164  0.50882493    -0.14000
C866        C  0.31066629  0.54043828  0.50945375    -0.29200
H867        H  0.27158818  0.55167819  0.53069821     0.15000
H868        H  0.32225460  0.52576051  0.49038790     0.15600
C869        C  0.20973300  0.96075243  0.54237499    -0.14000
C870        C  0.22681209  0.95397232  0.51042873    -0.29200
H871        H  0.20632726  0.98252781  0.54959158     0.15000
H872        H  0.22834254  0.93247517  0.50031711     0.15600
C873        C  0.21821570  0.55762575  0.00462446    -0.14000
C874        C  0.21949207  0.52967656  0.00496693    -0.29200
H875        H  0.23424354  0.56937056  0.98866817     0.15000
H876        H  0.20461445  0.51775497  0.02325953     0.15600
C877        C  0.18486050  0.64386907  0.06691811    -0.10800
C878        C  0.18994725  0.66518337  0.08548662    -0.12400
C879        C  0.05179282  0.71954307  0.41532992    -0.14000
C880        C  0.04462451  0.69966251  0.38729952    -0.29200
H881        H  0.07302741  0.72315137  0.42252563     0.15000
H882        H  0.02329278  0.69478138  0.38318033     0.15600
C883        C  0.13549929  0.68574337  0.32717885    -0.10800
C884        C  0.15845865  0.69073254  0.31676273    -0.12400
C885        C  0.31202962  0.53482655  0.39784929    -0.14000
C886        C  0.28704397  0.53890175  0.41396883    -0.29200
H887        H  0.32059186  0.51401986  0.39888740     0.15000
H888        H  0.27888637  0.55982796  0.41559885     0.15600
C889        C  0.32613100  0.63262811  0.35500949    -0.10800
C890        C  0.31804563  0.65443756  0.34029281    -0.12400
C891        C  0.03565281  0.78315727  0.01473323    -0.14000
C892        C  0.06256075  0.78224090  0.02099021    -0.29200
H893        H  0.02346142  0.79818763  0.03208458     0.15000
H894        H  0.07444597  0.76583171  0.00631131     0.15600
C895        C  0.16301961  0.80871683  0.12158517    -0.10800
C896        C  0.14066215  0.81071884  0.10673342    -0.12400
C897        C  0.10405011  0.55710145  0.07885014    -0.10800
C898        C  0.12516118  0.56499476  0.06293978    -0.12400
C899        C  0.06559728  0.59079368  0.29977367    -0.10800
C900        C  0.06912643  0.61437158  0.31139142    -0.12400
C901        C  0.41923795  0.56128273  0.32038141    -0.10800
C902        C  0.39864746  0.56685309  0.33950153    -0.12400
C903        C  0.06183903  0.89656724  0.10058594    -0.10800
C904        C  0.06707339  0.87326851  0.09001947    -0.12400
C905        C  0.44382604  0.70724204  0.01052909    -0.14000
C906        C  0.47079878  0.70703885  0.00483053    -0.29200
H907        H  0.43181749  0.72380193  0.99602516     0.15000
H908        H  0.48315841  0.69196992  0.02219971     0.15600
C909        C  0.44689211  0.59308669  0.09273116    -0.10800
C910        C  0.44007572  0.61613953  0.08236811    -0.12400
C911        C  0.36599352  0.67876875  0.09719064    -0.10800
C912        C  0.34425765  0.68361786  0.11271205    -0.12400
C913        C  0.22617551  0.95507401  0.41518916    -0.14000
C914        C  0.19894235  0.95362690  0.41881426    -0.29200
H915        H  0.23677153  0.94123301  0.39342266     0.15000
H916        H  0.18845724  0.96910810  0.43793237     0.15600
C917        C  0.09305306  0.93074827  0.33186877    -0.10800
C918        C  0.11374018  0.92543925  0.35113451    -0.12400
C919        C  0.18617199  0.85907470  0.36278760    -0.10800
C920        C  0.19370903  0.83730466  0.34779374    -0.12400
C921        C  0.31407904  0.95104694  0.00657770    -0.14000
C922        C  0.28713550  0.95337140  0.01265205    -0.29200
H923        H  0.32416293  0.96589387  0.98527546     0.15000
H924        H  0.27685271  0.94031754  0.03634621     0.15600
C925        C  0.32800063  0.85873765  0.07351380    -0.10800
C926        C  0.32077999  0.83773326  0.09198764    -0.12400
C927        C  0.40199906  0.92379172  0.06383558    -0.10800
C928        C  0.42306216  0.93113241  0.07991195    -0.12400
C929        C  0.46753178  0.78775057  0.38659304    -0.14000
C930        C  0.46220485  0.77002059  0.41929568    -0.29200
H931        H  0.48851525  0.79184145  0.37783784     0.15000
H932        H  0.44155135  0.76785336  0.43111862     0.15600
C933        C  0.37473556  0.80387231  0.33292084    -0.10800
C934        C  0.35160612  0.80016911  0.32224131    -0.12400
C935        C  0.44198174  0.87358884  0.31355516    -0.10800
C936        C  0.44589945  0.89705662  0.30171032    -0.12400
C937        C  0.90435942  0.31179150  0.32643248     0.82700
N938        N  0.92297363  0.29569525  0.34729555    -0.75600
C939        C  0.94893812  0.30500390  0.35169082     0.85100
N940        N  0.95590909  0.33036179  0.33543657    -0.75600
C941        C  0.93716809  0.34639108  0.31518319     0.85200
N942        N  0.91150595  0.33708682  0.31070181    -0.77300
C943        C  0.87298787  0.41530150  0.04845770     0.82700
N944        N  0.86683671  0.38903197  0.06176030    -0.75600
C945        C  0.84142950  0.37882302  0.05660539     0.85100
N946        N  0.82198915  0.39507372  0.03850746    -0.75600
C947        C  0.82762367  0.42156611  0.02568801     0.85200
N948        N  0.85325780  0.43176871  0.03086463    -0.77300
C949        C  0.67443041  0.38740476  0.36749964     0.82700
N950        N  0.64860317  0.39384938  0.35635219    -0.75600
C951        C  0.63921944  0.42017845  0.36055569     0.85100
N952        N  0.65599122  0.44039362  0.37546490    -0.75600
C953        C  0.68207431  0.43431216  0.38647847     0.85200
N954        N  0.69124254  0.40768772  0.38217914    -0.77300
C955        C  0.93052993  0.14084985  0.08651537     0.82700
N956        N  0.94463116  0.15983091  0.06245488    -0.75600
C957        C  0.93331880  0.18508650  0.05320626     0.85100
N958        N  0.90800580  0.19091853  0.06797873    -0.75600
C959        C  0.89426558  0.17194921  0.09224167     0.85200
N960        N  0.90548727  0.14700905  0.10124603    -0.77300
C961        C  0.57006924  0.44127420  0.29720586     0.44900
N962        N  0.55376661  0.46658660  0.24592817     0.03800
C963        C  0.93293805  0.03695090  0.25650238    -0.04100
H964        H  0.92930287  0.43586009  0.21799629     0.09300
C965        C  0.97088015  0.45420530  0.08224696    -0.04400
Co966      Co  0.50310029  0.49573669  0.27232748     0.74200
N967        N  0.95974672  0.46456236  0.24061201    -0.23600
Co968      Co  0.96112219  0.49735895  0.19531333     0.74100
C969        C  0.94377370  0.44459980  0.09554734     0.45000
N970        N  0.53490026  0.46410184  0.11802639     0.03400
N971        N  0.96094171  0.46960254  0.14541168     0.03500
N972        N  0.96281116  0.03619496  0.31149167    -0.44500
H973        H  0.53344543  0.45045693  0.34092370     0.09300
N974        N  0.47428961  0.46469769  0.26821861     0.03800
N975        N  0.95799499  0.02375874  0.15111928     0.03500
C976        C  0.95352925  0.06184565  0.11554537     0.45100
N977        N  0.55306803  0.46384149  0.14948500    -0.23100
C978        C  0.54134961  0.03978880  0.31912452    -0.04000
N979        N  0.57523063  0.45190381  0.25770512    -0.44200
N980        N  0.94319711  0.04676265  0.14881936    -0.44400
C981        C  0.56631549  0.05252728  0.30455627     0.44900
N982        N  0.97128963  0.02062685  0.27896118     0.03800
N983        N  0.56367607  0.01756729  0.16838854    -0.23100
N984        N  0.53483839  0.46706817  0.27592014    -0.23600
N985        N  0.54676813  0.02006668  0.13577605     0.03400
H986        H  0.60372849  0.03356404  0.18001826     0.09300
H987        H  0.99028346  0.05285963  0.07255570     0.09400
N988        N  0.95375134  0.02028277  0.24705725    -0.23600
N989        N  0.97996321  0.46954990  0.11553554    -0.23200
N990        N  0.55807319  0.01793112  0.26427705     0.03800
C991        C  0.95484518  0.42546430  0.27797949     0.45200
C992        C  0.56785627  0.44059208  0.14620150    -0.04500
N993        N  0.97759713  0.02366678  0.12188191    -0.23200
H994        H  0.47364686  0.45071314  0.04615555     0.09300
N995        N  0.47322851  0.44204966  0.29261925    -0.44500
H996        H  0.58378668  0.43403666  0.16792981     0.09300
C997        C  0.58057282  0.04599535  0.11878267     0.45000
C998        C  0.54329710  0.45157339  0.30972915    -0.04000
Co999      Co  0.55410977  0.49546446  0.19588989     0.73800
N1000       N  0.53619875  0.44197182  0.09319703    -0.44200
C1001       C  0.93902507  0.04769300  0.29895740     0.45300
N1002       N  0.57555984  0.03846983  0.27004822    -0.44200
Co1003     Co  0.50677727  0.49587875  0.11288519     0.73900
C1004       C  0.97624798  0.04680851  0.09781223    -0.04500
C1005       C  0.94459028  0.44139451  0.24131674    -0.04100
N1006       N  0.53781936  0.01862434  0.29231700    -0.23600
N1007       N  0.93912590  0.45540946  0.13454119    -0.44400
H1008       H  0.91438956  0.03867360  0.23813826     0.09300
C1009       C  0.58548622  0.03337986  0.16074140    -0.04500
Cl1010     Cl  0.50497626  0.49585921  0.19267293    -0.47500
C1011       C  0.55668709  0.42653995  0.10880582     0.45100
H1012       H  0.52777378  0.04575313  0.34484746     0.09300
N1013       N  0.55649255  0.03638712  0.10460634    -0.44200
C1014       C  0.61083366  0.31429199  0.09696307     0.82700
N1015       N  0.60143916  0.34055501  0.09962350    -0.75600
C1016       C  0.57720727  0.34737659  0.08244098     0.85100
N1017       N  0.56216538  0.32789758  0.06211171    -0.75600
C1018       C  0.57142671  0.30131794  0.05926976     0.85200
N1019       N  0.59584606  0.29451413  0.07692526    -0.77300
C1020       C  0.87157716  0.07182056  0.36311931     0.82700
N1021       N  0.86125434  0.09740302  0.35456416    -0.75600
C1022       C  0.83543154  0.10368325  0.36604802     0.85100
N1023       N  0.81951492  0.08393966  0.38521410    -0.75600
C1024       C  0.82974694  0.05815663  0.39393897     0.85200
N1025       N  0.85585525  0.05229909  0.38299181    -0.77300
C1026       C  0.56741689  0.16988453  0.37917100     0.82700
N1027       N  0.56409520  0.14303528  0.36719071    -0.75600
C1028       C  0.58348569  0.13019688  0.34366220     0.85100
N1029       N  0.60626634  0.14394334  0.33228218    -0.75600
C1030       C  0.60988236  0.17060219  0.34426551     0.85200
N1031       N  0.59047474  0.18378100  0.36764637    -0.77300
C1032       C  0.64745625  0.07526283  0.05769560     0.82700
N1033       N  0.66597980  0.05779370  0.04007157    -0.75600
C1034       C  0.69085753  0.06749629  0.02812600     0.85100
N1035       N  0.69709797  0.09480015  0.03446389    -0.75600
C1036       C  0.67862473  0.11215458  0.05273964     0.85200
N1037       N  0.65397083  0.10221643  0.06443377    -0.77300
C1038       C  0.82557713  0.29247989  0.30306900     0.44900
N1039       N  0.78816945  0.29127101  0.26830852     0.03800
C1040       C  0.69587176  0.18525464  0.26390603    -0.04100
H1041       H  0.79471377  0.15115090  0.25080796     0.09300
C1042       C  0.80520715  0.21581430  0.11447553    -0.04400
Co1043     Co  0.75386900  0.24356678  0.29764191     0.74200
N1044       N  0.77827373  0.19179004  0.26268763    -0.23600
Co1045     Co  0.75058812  0.19636935  0.21369666     0.74100
C1046       C  0.81819581  0.19104084  0.13109803     0.45000
N1047       N  0.78461678  0.28027274  0.14024798     0.03400
N1048       N  0.78196615  0.19767318  0.16728065     0.03500
N1049       N  0.69953998  0.21653419  0.31792803    -0.44500
H1050       H  0.81413386  0.25465962  0.34504910     0.09300
N1051       N  0.77961713  0.20882941  0.29556834     0.03800
N1052       N  0.72283047  0.19916955  0.16399161     0.03500
C1053       C  0.69884265  0.18375800  0.11156974     0.45100
N1054       N  0.78552978  0.29759346  0.17275598    -0.23100
C1055       C  0.71239514  0.28762196  0.33365509    -0.04000
N1056       N  0.81159158  0.30472386  0.27059699    -0.44200
N1057       N  0.70784684  0.17791787  0.15156611    -0.44400
C1058       C  0.70352648  0.31539646  0.31963057     0.44900
N1059       N  0.72116945  0.21673336  0.29264540     0.03800
N1060       N  0.72607140  0.29840403  0.17527295    -0.23100
N1061       N  0.78656679  0.27065623  0.29687208    -0.23600
N1062       N  0.72566666  0.28043690  0.14317476     0.03400
H1063       H  0.69654572  0.32848761  0.19699143     0.09300
H1064       H  0.71079920  0.22091681  0.06820696     0.09400
N1065       N  0.71962506  0.19874343  0.26061898    -0.23600
N1066       N  0.78307364  0.21837620  0.13885559    -0.23200
N1067       N  0.72921174  0.29784556  0.27114122     0.03800
C1068       C  0.80492130  0.17414332  0.31295664     0.45200
C1069       C  0.80384720  0.31741295  0.16422453    -0.04500
N1070       N  0.72499616  0.21864335  0.13400934    -0.23200
H1071       H  0.81178495  0.23012582  0.08942671     0.09300
N1072       N  0.79489991  0.19860485  0.32727334    -0.44500
H1073       H  0.80720037  0.33575172  0.18340062     0.09300
C1074       C  0.68827394  0.30216333  0.13676620     0.45000
C1075       C  0.80926760  0.26989467  0.32037798    -0.04000
Co1076     Co  0.75729291  0.29686818  0.22187502     0.73800
N1077       N  0.80103087  0.28798401  0.10824734    -0.44200
C1078       C  0.68287395  0.19720263  0.30176510     0.45300
N1079       N  0.71516449  0.32027093  0.28111289    -0.44200
Co1080     Co  0.75458179  0.24961496  0.13827267     0.73900
C1081       C  0.71042829  0.21077798  0.09952566    -0.04500
C1082       C  0.79374680  0.16954800  0.27052781    -0.04100
N1083       N  0.72824424  0.27836992  0.30128186    -0.23600
N1084       N  0.80315683  0.18084283  0.16415856    -0.44400
H1085       H  0.68841395  0.16968844  0.24198728     0.09300
C1086       C  0.70297643  0.31323591  0.17372303    -0.04500
Cl1087     Cl  0.75404328  0.24659347  0.21790255    -0.47500
C1088       C  0.81433695  0.31090450  0.12173666     0.45100
H1089       H  0.70936618  0.27725157  0.36443704     0.09300
N1090       N  0.70334775  0.28179692  0.11984297    -0.44200
C1091       C  0.74306079  0.47316979  0.43654982     0.04700
C1092       C  0.74890588  0.46793512  0.48043631     0.04700
C1093       C  0.76907117  0.48320715  0.50119222    -0.15800
C1094       C  0.77150536  0.01426875  0.48542646     0.04700
C1095       C  0.77063449  0.01380216  0.43982263     0.04700
C1096       C  0.75655018  0.49519832  0.41499373    -0.15800
H1097       H  0.75247157  0.49908252  0.38111338     0.06700
H1098       H  0.77356033  0.47876422  0.53481735     0.06700
C1099       C  0.98746047  0.22731537  0.99066404     0.04700
C1100       C  0.97983682  0.23261798  0.94712240     0.04700
C1101       C  0.50495185  0.24559617  0.91586433    -0.15800
C1102       C  0.52092078  0.26540550  0.93752628     0.04700
C1103       C  0.52120220  0.26528971  0.98318972     0.04700
C1104       C  0.50554185  0.24569125  0.00605037    -0.15800
H1105       H  0.50579173  0.24569638  0.04106020     0.06700
H1106       H  0.98801761  0.25774094  0.89034167     0.06700
C1107       C  0.98546160  0.25593381  0.43102746     0.04700
C1108       C  0.98448712  0.25639849  0.47665197     0.04700
C1109       C  0.49360926  0.22945725  0.49848166    -0.15800
C1110       C  0.51602393  0.21678972  0.47812373     0.04700
C1111       C  0.52157151  0.22350850  0.43424601     0.04700
C1112       C  0.50457734  0.24198705  0.41190015    -0.15800
H1113       H  0.50823735  0.24592626  0.37784811     0.06700
H1114       H  0.48960205  0.22502995  0.53227424     0.06700
C1115       C  0.78326144  0.48173218  0.97976090     0.04700
C1116       C  0.77540445  0.47533431  0.93682542     0.04700
C1117       C  0.75614786  0.49214590  0.91586911    -0.15800
C1118       C  0.73066206  0.00294268  0.94388863     0.04700
C1119       C  0.72985256  0.00242045  0.98951026     0.04700
C1120       C  0.77012326  0.50383310  0.00112613    -0.15800
H1121       H  0.77520744  0.50814562  0.03441507     0.06700
H1122       H  0.75161373  0.48836360  0.88220578     0.06700
C1123       C  0.86628721  0.41756390  0.83702426     0.82700
N1124       N  0.85409477  0.39385778  0.82507968    -0.75600
C1125       C  0.82881092  0.38786927  0.83887800     0.85100
N1126       N  0.81528764  0.40600548  0.86483924    -0.75600
C1127       C  0.82774853  0.43010648  0.87700197     0.85200
N1128       N  0.85328070  0.43564776  0.86299382    -0.77300
C1129       C  0.89239133  0.16566735  0.87379890     0.82700
N1130       N  0.89832290  0.13870872  0.86596657    -0.75600
C1131       C  0.92252624  0.12795102  0.87774336     0.85100
N1132       N  0.94120145  0.14435699  0.89699458    -0.75600
C1133       C  0.93577644  0.17158789  0.90466034     0.85200
N1134       N  0.91124120  0.18237707  0.89271712    -0.77300
C1135       C  0.69623226  0.05317760  0.86399104     0.82700
N1136       N  0.67022041  0.04430385  0.85823846    -0.75600
C1137       C  0.65206368  0.06116435  0.83782451     0.85100
N1138       N  0.65967953  0.08669100  0.82390185    -0.75600
C1139       C  0.68534518  0.09552720  0.82969404     0.85200
N1140       N  0.70372698  0.07877090  0.84936887    -0.77300
C1141       C  0.58704818  0.35407414  0.86223440     0.82700
N1142       N  0.57069401  0.33485052  0.88180469    -0.75600
C1143       C  0.58106376  0.30982220  0.89473358     0.85100
N1144       N  0.60773486  0.30419230  0.88755149    -0.75600
C1145       C  0.62391318  0.32318826  0.86739937     0.85200
N1146       N  0.61345941  0.34798358  0.85466725    -0.77300
C1147       C  0.58577149  0.13221739  0.55498832     0.82700
N1148       N  0.56870470  0.15113740  0.53646802    -0.75600
C1149       C  0.57807078  0.17689067  0.52499034     0.85100
N1150       N  0.60448274  0.18349687  0.53254559    -0.73200
C1151       C  0.62140336  0.16471344  0.55142026     0.85200
N1152       N  0.61190829  0.13923678  0.56279145    -0.77300
C1153       C  0.82970662  0.09570789  0.58704834     0.82700
N1154       N  0.85449221  0.08801217  0.60104606    -0.75600
C1155       C  0.86354424  0.06194876  0.59454386     0.85100
N1156       N  0.84768902  0.04319174  0.57411996    -0.75600
C1157       C  0.82277871  0.05075160  0.55944300     0.85200
N1158       N  0.81372024  0.07718995  0.56598026    -0.77300
C1159       C  0.69354800  0.29903991  0.81024196     0.44900
N1160       N  0.70898017  0.27243181  0.76075377     0.03800
C1161       C  0.82985406  0.19844547  0.76577801    -0.04100
H1162       H  0.83552640  0.30581428  0.73455459     0.09300
C1163       C  0.79750799  0.28592362  0.59138972    -0.04400
Co1164     Co  0.75919660  0.24252401  0.78810257     0.74200
N1165       N  0.80579096  0.27459289  0.75248221    -0.23600
Co1166     Co  0.80660040  0.24262901  0.70551681     0.74100
C1167       C  0.82440747  0.29556667  0.60430883     0.45000
N1168       N  0.72779395  0.27507869  0.63301722     0.03400
N1169       N  0.80682990  0.27140183  0.65577642     0.03500
N1170       N  0.80051817  0.19994344  0.82156020    -0.44500
H1171       H  0.72963489  0.28902340  0.85473670     0.09300
N1172       N  0.78764823  0.27369614  0.78406709     0.03800
N1173       N  0.80349419  0.21074085  0.65879011     0.03500
C1174       C  0.80790745  0.17386382  0.62135368     0.45100
N1175       N  0.70961370  0.27564167  0.66452163    -0.23100
C1176       C  0.72853872  0.18852113  0.81116411    -0.04000
N1177       N  0.68813747  0.28824100  0.77135107    -0.44200
N1178       N  0.81846849  0.18795272  0.65500849    -0.44400
C1179       C  0.70527449  0.17410142  0.79402086     0.44900
N1180       N  0.79102846  0.21384501  0.78755584     0.03800
N1181       N  0.70590636  0.21535873  0.66247713    -0.23100
N1182       N  0.72765345  0.27138262  0.79096561    -0.23600
N1183       N  0.72320388  0.21512935  0.63009919     0.03400
H1184       H  0.66624463  0.19768299  0.67178950     0.09300
H1185       H  0.77107925  0.18419865  0.57921960     0.09400
N1186       N  0.80832518  0.21389373  0.75516507    -0.23600
N1187       N  0.78821766  0.27106490  0.62540094    -0.23200
N1188       N  0.71049797  0.21177626  0.75815677     0.03800
C1189       C  0.80799824  0.31206012  0.79407825     0.45200
C1190       C  0.69533078  0.29925602  0.66070471    -0.04500
N1191       N  0.78370641  0.21159619  0.62999348    -0.23200
H1192       H  0.78808738  0.28694392  0.55992995     0.09300
N1193       N  0.78820275  0.29562320  0.80930255    -0.44500
H1194       H  0.67948533  0.30611954  0.68225784     0.09300
C1195       C  0.69030481  0.18889330  0.61019191     0.45000
C1196       C  0.71968844  0.28761233  0.82376494    -0.04000
Co1197     Co  0.70824605  0.24381213  0.71154528     0.73800
N1198       N  0.72703025  0.29724958  0.60759392    -0.44200
C1199       C  0.82470801  0.18916956  0.80969494     0.45300
N1200       N  0.69510302  0.18924154  0.76092682    -0.44200
Co1201     Co  0.75564711  0.24325842  0.62887332     0.73900
C1202       C  0.78496833  0.18925101  0.60493168    -0.04500
C1203       C  0.81983500  0.29847469  0.75626550    -0.04100
N1204       N  0.73029274  0.21154011  0.78692489    -0.23600
N1205       N  0.82879991  0.28535684  0.64417556    -0.44400
H1206       H  0.84856764  0.19758319  0.74758904     0.09300
C1207       C  0.68475017  0.19916277  0.65311990    -0.04500
Cl1208     Cl  0.75744839  0.24303705  0.70848458    -0.47500
C1209       C  0.70699811  0.31315940  0.62299485     0.45100
H1210       H  0.74241357  0.18232655  0.83643360     0.09300
N1211       N  0.71418644  0.20013824  0.59731717    -0.44200
C1212       C  0.89305589  0.32094430  0.54333291     0.82700
N1213       N  0.89823278  0.34824957  0.54959801    -0.75600
C1214       C  0.92219486  0.35942569  0.53720831     0.85100
N1215       N  0.94134485  0.34313443  0.51883433    -0.75600
C1216       C  0.93668467  0.31557002  0.51296358     0.85200
N1217       N  0.91242806  0.30434522  0.52549416    -0.77300
C1218       C  0.64985807  0.42065934  0.57563821     0.82700
N1219       N  0.66479177  0.43799293  0.55019330    -0.75600
C1220       C  0.69064029  0.43102231  0.53939506     0.85100
N1221       N  0.70126095  0.40655984  0.55391130    -0.75600
C1222       C  0.68605190  0.38938436  0.57912296     0.85200
N1223       N  0.66049798  0.39646253  0.58989471    -0.77300
C1224       C  0.93783323  0.44005298  0.78471798     0.44900
N1225       N  0.97158771  0.44608893  0.74301602     0.03800
C1226       C  0.56154136  0.05678286  0.76529683    -0.04100
H1227       H  0.95531870  0.08398570  0.75616346     0.09300
C1228       C  0.95521837  0.02052994  0.61909037    -0.04400
Co1229     Co  0.50529941  0.99612999  0.79766145     0.74200
N1230       N  0.97699402  0.04589384  0.76817688    -0.23600
Co1231     Co  0.50700219  0.04496085  0.71485754     0.74100
C1232       C  0.93972701  0.04394834  0.63430886     0.45000
N1233       N  0.97473296  0.45964452  0.61409772     0.03400
N1234       N  0.97547316  0.04053993  0.67250602     0.03500
N1235       N  0.55832820  0.02440200  0.81876042    -0.44500
H1236       H  0.95023556  0.97982427  0.85547241     0.09300
N1237       N  0.97767388  0.02850663  0.80125426     0.03800
N1238       N  0.53514266  0.04439468  0.66549706     0.03500
C1239       C  0.56003845  0.06147588  0.61489868     0.45100
N1240       N  0.97358576  0.44204946  0.64689429    -0.23100
C1241       C  0.54988767  0.45132066  0.81393759    -0.04000
N1242       N  0.95054303  0.42951709  0.74995076    -0.44200
N1243       N  0.54988036  0.06629671  0.65437333    -0.44400
C1244       C  0.55883297  0.42353266  0.80129345     0.44900
N1245       N  0.53666723  0.02447687  0.79376875     0.03800
N1246       N  0.53645383  0.44099919  0.65495658    -0.23100
N1247       N  0.97283005  0.46650006  0.77118379    -0.23600
N1248       N  0.53657186  0.45936554  0.62283141     0.03400
H1249       H  0.56513706  0.40922127  0.67413313     0.09300
H1250       H  0.55041561  0.02479852  0.57029220     0.09400
N1251       N  0.53791291  0.04305058  0.76196465    -0.23600
N1252       N  0.97690232  0.01993661  0.64470401    -0.23200
N1253       N  0.53400613  0.44104968  0.75123201     0.03800
C1254       C  0.94786646  0.05891010  0.81839098     0.45200
C1255       C  0.95529032  0.42239379  0.63838520    -0.04500
N1256       N  0.53423777  0.02546672  0.63513387    -0.23200
H1257       H  0.95054475  0.00580174  0.59403739     0.09300
N1258       N  0.96105839  0.03604049  0.83272186    -0.44500
H1259       H  0.95188551  0.40380216  0.65757599     0.09300
C1260       C  0.57279266  0.43629658  0.61352948     0.45000
C1261       C  0.95222082  0.46440375  0.79884155    -0.04000
Co1262     Co  0.00185152  0.44222368  0.69594222     0.73800
N1263       N  0.95861745  0.45226336  0.58200992    -0.44200
C1264       C  0.57469092  0.04438320  0.80310669     0.45300
N1265       N  0.54777628  0.41855870  0.76255993    -0.44200
Co1266     Co  0.50592006  0.99310584  0.63817191     0.73900
C1267       C  0.54945807  0.03443721  0.60163915    -0.04500
C1268       C  0.95857608  0.06559582  0.77585272    -0.04100
N1269       N  0.53459552  0.46053432  0.78078246    -0.23600
N1270       N  0.95304997  0.05541667  0.66772971    -0.44400
H1271       H  0.56899282  0.07255765  0.74317707     0.09300
C1272       C  0.55889510  0.42535677  0.65174059    -0.04500
Cl1273     Cl  0.50571457  0.99462225  0.71789357    -0.47500
C1274       C  0.94524621  0.42928032  0.59559375     0.45100
H1275       H  0.55202766  0.46150055  0.84470464     0.09300
N1276       N  0.55807373  0.45744101  0.59763759    -0.44200
C1277       C  0.59988995  0.43090255  0.59981697    -0.10800
C1278       C  0.62274487  0.42730929  0.58773971    -0.12400
C1279       C  0.92857168  0.38731873  0.54949928    -0.10800
C1280       C  0.93495595  0.40853969  0.56708804    -0.12400
C1281       C  0.70142598  0.34047543  0.60729041    -0.10800
C1282       C  0.69612596  0.36324043  0.59370032    -0.12400
C1283       C  0.84666226  0.30345436  0.57653850    -0.10800
C1284       C  0.86757768  0.30994066  0.55864731    -0.12400
C1285       C  0.81529671  0.14640422  0.60826872    -0.10800
C1286       C  0.82060067  0.12318761  0.59680920    -0.12400
C1287       C  0.91268847  0.05039699  0.62151251    -0.10800
C1288       C  0.89002507  0.05474832  0.60919793    -0.12400
C1289       C  0.57605615  0.10548444  0.56987808    -0.10800
C1290       C  0.56916268  0.08402323  0.58744306    -0.12400
C1291       C  0.64834702  0.17267888  0.56437139    -0.10800
C1292       C  0.66926008  0.17939898  0.58169283    -0.12400
C1293       C  0.65108251  0.31593031  0.85453983    -0.10800
C1294       C  0.67213786  0.30921227  0.83755028    -0.12400
C1295       C  0.57636540  0.38019776  0.84646760    -0.10800
C1296       C  0.56867282  0.40126571  0.82863871    -0.12400
C1297       C  0.69255210  0.12288193  0.81578743    -0.10800
C1298       C  0.69766537  0.14630207  0.80484889    -0.12400
C1299       C  0.60193531  0.04843098  0.81770159    -0.10800
C1300       C  0.62493078  0.05237912  0.82902947    -0.12400
C1301       C  0.92962038  0.10049219  0.86412794    -0.10800
C1302       C  0.93669358  0.07958209  0.84626114    -0.12400
C1303       C  0.84623829  0.18221714  0.83927680    -0.10800
C1304       C  0.86688355  0.17632273  0.85824610    -0.12400
C1305       C  0.81286355  0.33941912  0.81042465    -0.10800
C1306       C  0.81744343  0.36202364  0.82519525    -0.12400
C1307       C  0.89220097  0.42404698  0.81975773    -0.10800
C1308       C  0.91333478  0.42999896  0.80312308    -0.12400
C1309       C  0.70994500  0.01862938  0.91887193    -0.14000
C1310       C  0.71657473  0.03557999  0.88591771    -0.29200
H1311       H  0.68905376  0.01786137  0.93001699     0.15000
H1312       H  0.73778339  0.03846019  0.87744616     0.15600
C1313       C  0.78770294  0.45240147  0.91141743    -0.14000
C1314       C  0.81455668  0.45079406  0.90510304    -0.29200
H1315       H  0.77430030  0.43842861  0.89426257     0.15000
H1316       H  0.82751172  0.46653224  0.91927147     0.15600
C1317       C  0.53300473  0.19654099  0.50323083    -0.14000
C1318       C  0.56033825  0.19781563  0.50354379    -0.29200
H1319       H  0.52271710  0.18067010  0.52234766     0.15000
H1320       H  0.57031507  0.21516130  0.48731700     0.15600
C1321       C  0.96264560  0.27172974  0.49991648    -0.14000
C1322       C  0.95799192  0.29886468  0.49168272    -0.29200
H1323       H  0.95129096  0.26102872  0.52515197     0.15000
H1324       H  0.97140875  0.30985465  0.46944595     0.15600
C1325       C  0.56413671  0.28882008  0.91766218    -0.14000
C1326       C  0.53717255  0.28605627  0.91198335    -0.29200
H1327       H  0.57445729  0.27448545  0.93941248     0.15000
H1328       H  0.52695464  0.29846857  0.88748578     0.15600
C1329       C  0.95799328  0.21652298  0.92492299    -0.14000
C1330       C  0.95696848  0.18852176  0.92604572    -0.29200
H1331       H  0.94338495  0.22794622  0.90547478     0.15000
H1332       H  0.97314435  0.17721178  0.94222728     0.15600
C1333       C  0.78679007  0.03621651  0.50859046    -0.14000
C1334       C  0.80578983  0.02968695  0.53795449    -0.29200
H1335       H  0.78394068  0.05777141  0.49882502     0.15000
H1336       H  0.81021736  0.00792015  0.54449313     0.15600
C1337       C  0.70663770  0.44997102  0.51170758    -0.14000
C1338       C  0.73351259  0.44722258  0.50617937    -0.29200
H1339       H  0.69618051  0.46737677  0.49653783     0.15000
H1340       H  0.74467266  0.43134139  0.52385314     0.15600
C1341       C  0.71090190  0.04880814  0.00750020    -0.14000
C1342       C  0.71112414  0.02096982  0.01384075    -0.29200
H1343       H  0.72601294  0.05822074  0.98636145     0.15000
H1344       H  0.69763870  0.01158060  0.03760676     0.15600
C1345       C  0.68591282  0.14000285  0.06522424    -0.10800
C1346       C  0.69118194  0.16169804  0.08281033    -0.12400
C1347       C  0.54409432  0.21078597  0.40961545    -0.14000
C1348       C  0.54591984  0.18316820  0.40488676    -0.29200
H1349       H  0.55803462  0.22447950  0.39246970     0.15000
H1350       H  0.53051562  0.16983673  0.41935106     0.15600
C1351       C  0.63455960  0.18408802  0.33188098    -0.10800
C1352       C  0.65645928  0.19113601  0.31859556    -0.12400
C1353       C  0.81338842  0.03669312  0.41683035    -0.14000
C1354       C  0.78622811  0.03448829  0.41343208    -0.29200
H1355       H  0.82421428  0.02174704  0.43690259     0.15000
H1356       H  0.77530062  0.04767766  0.39075588     0.15600
C1357       C  0.82459977  0.13061212  0.35460689    -0.10800
C1358       C  0.81606005  0.15213567  0.33937521    -0.12400
C1359       C  0.53645357  0.28667738  0.00736388    -0.14000
C1360       C  0.55523649  0.27990750  0.03706193    -0.29200
H1361       H  0.53358174  0.30830616  0.99808957     0.15000
H1362       H  0.55969334  0.25816180  0.04358667     0.15600
C1363       C  0.66036909  0.30609150  0.12564967    -0.10800
C1364       C  0.63733881  0.30844401  0.11340519    -0.12400
C1365       C  0.60167640  0.05685276  0.09141578    -0.10800
C1366       C  0.62190592  0.06492734  0.07330882    -0.12400
C1367       C  0.57538349  0.07924500  0.31747609    -0.10800
C1368       C  0.57973620  0.10235920  0.32973997    -0.12400
C1369       C  0.91843779  0.05781629  0.32791982    -0.10800
C1370       C  0.89804191  0.06460083  0.34681777    -0.12400
C1371       C  0.56226431  0.39881490  0.09552662    -0.10800
C1372       C  0.56770742  0.37516141  0.08715198    -0.12400
C1373       C  0.94739659  0.20603715  0.02590615    -0.14000
C1374       C  0.97417958  0.20560532  0.01798482    -0.29200
H1375       H  0.93531135  0.22291275  0.01249199     0.15000
H1376       H  0.98690909  0.19018704  0.03384943     0.15600
C1377       C  0.94670157  0.09007161  0.10513464    -0.10800
C1378       C  0.94103734  0.11370025  0.09567868    -0.12400
C1379       C  0.86758908  0.17771756  0.10766227    -0.10800
C1380       C  0.84495676  0.18244530  0.11988811    -0.12400
C1381       C  0.72636572  0.45270795  0.41236546    -0.14000
C1382       C  0.70002586  0.45683180  0.40292169    -0.29200
H1383       H  0.73521465  0.43230750  0.40754510     0.15000
H1384       H  0.69105241  0.47700643  0.40927171     0.15600
C1385       C  0.59177123  0.43271600  0.32559214    -0.10800
C1386       C  0.61259234  0.42704635  0.34434036    -0.12400
C1387       C  0.68453935  0.35981379  0.35876681    -0.10800
C1388       C  0.69259697  0.33783613  0.34493473    -0.12400
C1389       C  0.80563741  0.43814938  0.00523028    -0.14000
C1390       C  0.80521144  0.46613243  0.00290402    -0.29200
H1391       H  0.78862185  0.42665794  0.99212200     0.15000
H1392       H  0.82080872  0.47798077  0.01922546     0.15600
C1393       C  0.83428373  0.35197754  0.07438060    -0.10800
C1394       C  0.82637833  0.33146046  0.09346652    -0.12400
C1395       C  0.89992855  0.42601143  0.05660147    -0.10800
C1396       C  0.92165283  0.43404721  0.06987986    -0.12400
C1397       C  0.96982826  0.28836888  0.37423311    -0.14000
C1398       C  0.96383341  0.26925160  0.40464847    -0.29200
H1399       H  0.99093280  0.29373722  0.36836962     0.15000
H1400       H  0.94281811  0.26559856  0.41360548     0.15600
C1401       C  0.87695438  0.30266903  0.32056710    -0.10800
C1402       C  0.85349370  0.29778160  0.31297944    -0.12400
C1403       C  0.94391192  0.37376256  0.30035685    -0.10800
C1404       C  0.94861915  0.39730148  0.28931840    -0.12400
C1405       C  0.89538720  0.81752622  0.34523904     0.82700
N1406       N  0.90974487  0.80051783  0.37178821    -0.75600
C1407       C  0.93583645  0.80673429  0.38169665     0.85100
N1408       N  0.94739971  0.83029902  0.36494382    -0.75600
C1409       C  0.93273616  0.84728499  0.33847816     0.85200
N1410       N  0.90686370  0.84077783  0.32872747    -0.77300
C1411       C  0.87070665  0.90958913  0.05167686     0.82700
N1412       N  0.86055455  0.88485518  0.06537074    -0.75600
C1413       C  0.83378927  0.87918198  0.06107124     0.85100
N1414       N  0.81683425  0.89870188  0.04396345    -0.75600
C1415       C  0.82688740  0.92368485  0.03021338     0.85200
N1416       N  0.85388279  0.92894636  0.03406763    -0.77300
C1417       C  0.67452441  0.88016193  0.38277435     0.82700
N1418       N  0.64840591  0.88602243  0.37291010    -0.75600
C1419       C  0.63794461  0.91147564  0.38073510     0.85100
N1420       N  0.65386739  0.93143396  0.39841639    -0.75600
C1421       C  0.68034493  0.92602922  0.40782284     0.85200
N1422       N  0.69071632  0.90028479  0.39966396    -0.77300
C1423       C  0.93361648  0.64501339  0.08696815     0.82700
N1424       N  0.94729588  0.66531716  0.06537817    -0.75600
C1425       C  0.93631365  0.69116411  0.06107053     0.85100
N1426       N  0.91157310  0.69646913  0.07854832    -0.75600
C1427       C  0.89782635  0.67592572  0.09964633     0.85200
N1428       N  0.90888249  0.65032141  0.10385735    -0.77300
C1429       C  0.56943959  0.93123729  0.31580502     0.44900
N1430       N  0.55533373  0.95756486  0.26403092     0.03800
C1431       C  0.93920220  0.54257262  0.25458592    -0.04100
H1432       H  0.92747394  0.92854180  0.22846202     0.09300
C1433       C  0.96724501  0.94651220  0.08697873    -0.04400
Co1434     Co  0.50660039  0.99029032  0.29048379     0.74200
N1435       N  0.95727253  0.95958648  0.24551497    -0.23600
Co1436     Co  0.95580748  0.99160691  0.19818673     0.74100
C1437       C  0.94144464  0.93474266  0.10179900     0.45000
N1438       N  0.53919715  0.96040740  0.13495200     0.03400
N1439       N  0.95656733  0.96276952  0.14938735     0.03500
N1440       N  0.96720661  0.53843366  0.31164982    -0.44500
H1441       H  0.53302224  0.94281568  0.35836303     0.09300
N1442       N  0.47581642  0.96170098  0.28384051     0.03800
N1443       N  0.96596377  0.52978185  0.14986773     0.03500
C1444       C  0.96212689  0.56769344  0.11397116     0.45100
N1445       N  0.55665966  0.95754432  0.16706896    -0.23100
C1446       C  0.53287208  0.54977608  0.29464443    -0.04000
N1447       N  0.57570305  0.94155506  0.27650427    -0.44200
N1448       N  0.95110572  0.55262252  0.14649333    -0.44400
C1449       C  0.55547384  0.56510851  0.27672739     0.44900
N1450       N  0.97587557  0.52344899  0.27863764     0.03800
N1451       N  0.55619797  0.52410012  0.14622191    -0.23100
N1452       N  0.53608821  0.95917766  0.29345069    -0.23600
N1453       N  0.53925651  0.52412672  0.11347660     0.03400
H1454       H  0.59550001  0.54224824  0.15591260     0.09300
H1455       H  0.99951180  0.55827040  0.07215931     0.09400
N1456       N  0.95940624  0.52507487  0.24542480    -0.23600
N1457       N  0.97508509  0.96359967  0.11875515    -0.23200
N1458       N  0.55149730  0.52731992  0.24190732     0.03800
C1459       C  0.95538024  0.92175966  0.28720872     0.45200
C1460       C  0.57004085  0.93352205  0.16179496    -0.04500
N1461       N  0.98615898  0.52936412  0.12162285    -0.23200
H1462       H  0.48181564  0.94894131  0.06366653     0.09300
N1463       N  0.47289709  0.93892891  0.30747547    -0.44500
H1464       H  0.58527830  0.92505273  0.18321711     0.09300
C1465       C  0.57210164  0.55083092  0.09358571     0.45000
C1466       C  0.54315212  0.94309401  0.32736682    -0.04000
Co1467     Co  0.55890779  0.98756574  0.21593770     0.73800
N1468       N  0.53960943  0.93947198  0.10770935    -0.44200
C1469       C  0.94447890  0.55161731  0.29829713     0.45300
N1470       N  0.56613449  0.55041216  0.24387581    -0.44200
Co1471     Co  0.51315194  0.99393433  0.13173843     0.73900
C1472       C  0.98536379  0.55259738  0.09745299    -0.04500
C1473       C  0.94331778  0.93566348  0.24970117    -0.04100
N1474       N  0.53180852  0.52682060  0.27097159    -0.23600
N1475       N  0.93604563  0.94622786  0.14019415    -0.44400
H1476       H  0.92124907  0.54568295  0.23517048     0.09300
C1477       C  0.57721754  0.54061102  0.13691099    -0.04500
Cl1478     Cl  0.50992007  0.99195665  0.21113270    -0.47500
C1479       C  0.55870345  0.92196118  0.12236505     0.45100
H1480       H  0.51870878  0.55553926  0.31968913     0.09300
N1481       N  0.54851114  0.53927455  0.08043752    -0.44200
C1482       C  0.60898457  0.80963656  0.09542123     0.82700
N1483       N  0.60023284  0.83591453  0.10072182    -0.75600
C1484       C  0.57620397  0.84404636  0.08429788     0.85100
N1485       N  0.56068034  0.82578714  0.06208285    -0.75600
C1486       C  0.56941797  0.79914319  0.05665082     0.85200
N1487       N  0.59360095  0.79109169  0.07363570    -0.77300
C1488       C  0.87616460  0.57286118  0.36242095     0.82700
N1489       N  0.86569009  0.59872211  0.35747241    -0.75600
C1490       C  0.83984188  0.60411016  0.36980641     0.85100
N1491       N  0.82404114  0.58324962  0.38610761    -0.75600
C1492       C  0.83446078  0.55715932  0.39107316     0.85200
N1493       N  0.86057484  0.55216611  0.37930977    -0.77300
C1494       C  0.56256465  0.68098271  0.36125821     0.82700
N1495       N  0.55489544  0.65731907  0.34094575    -0.75600
C1496       C  0.57347824  0.64198661  0.31935573     0.85100
N1497       N  0.59956715  0.65020528  0.31783371    -0.75600
C1498       C  0.60739514  0.67370804  0.33764435     0.85200
N1499       N  0.58901777  0.68921390  0.35963404    -0.77300
C1500       C  0.64333420  0.57446932  0.04253862     0.82700
N1501       N  0.66096257  0.55578237  0.02568935    -0.75600
C1502       C  0.68797257  0.56160368  0.02326487     0.85100
N1503       N  0.69727293  0.58649068  0.03803897    -0.75600
C1504       C  0.67949649  0.60531914  0.05468743     0.85200
N1505       N  0.65273799  0.59906230  0.05719007    -0.77300
C1506       C  0.81909240  0.79674357  0.31061929     0.44900
N1507       N  0.78334609  0.79040694  0.27356231     0.03800
C1508       C  0.69943074  0.67775356  0.27346062    -0.04100
H1509       H  0.80018343  0.65061540  0.25898402     0.09300
C1510       C  0.80582423  0.71437226  0.12129283    -0.04400
Co1511     Co  0.75356126  0.74017188  0.30426427     0.74200
N1512       N  0.78146485  0.69024936  0.26998511    -0.23600
Co1513     Co  0.75315536  0.69192617  0.22166406     0.74100
C1514       C  0.82068729  0.69084144  0.13848330     0.45000
N1515       N  0.78027427  0.77752448  0.14572240     0.03400
N1516       N  0.78404946  0.69504856  0.17466226     0.03500
N1517       N  0.70172982  0.70980424  0.32644056    -0.44500
H1518       H  0.81118572  0.75836013  0.35338816     0.09300
N1519       N  0.78179684  0.70765052  0.30245537     0.03800
N1520       N  0.72499331  0.69188483  0.17242612     0.03500
C1521       C  0.70169604  0.67436680  0.12093191     0.45100
N1522       N  0.78000147  0.79516762  0.17788043    -0.23100
C1523       C  0.71090893  0.78174000  0.34164883    -0.04000
N1524       N  0.80473057  0.80691539  0.27697033    -0.44200
N1525       N  0.71151387  0.66941343  0.16071874    -0.44400
C1526       C  0.70046924  0.80898146  0.32824302     0.44900
N1527       N  0.72318893  0.71081867  0.30093206     0.03800
N1528       N  0.72116546  0.79155306  0.18091833    -0.23100
N1529       N  0.78358939  0.76996878  0.30249895    -0.23600
N1530       N  0.72181241  0.77311925  0.14947480     0.03400
H1531       H  0.69104981  0.82183827  0.19955981     0.09300
H1532       H  0.71035613  0.71206955  0.07675445     0.09400
N1533       N  0.72245032  0.69247440  0.26935199    -0.23600
N1534       N  0.78356153  0.71548625  0.14575267    -0.23200
N1535       N  0.72445587  0.79194659  0.27713396     0.03800
C1536       C  0.80908939  0.67477259  0.32047841     0.45200
C1537       C  0.79601310  0.81676109  0.16822221    -0.04500
N1538       N  0.72546053  0.71125677  0.14208771    -0.23200
H1539       H  0.81132200  0.72892526  0.09591652     0.09300
N1540       N  0.79755742  0.69862252  0.33440237    -0.44500
H1541       H  0.79757282  0.83563549  0.18672175     0.09300
C1542       C  0.68435410  0.79403296  0.14043013     0.45000
C1543       C  0.80545397  0.77231605  0.32741598    -0.04000
Co1544     Co  0.75221978  0.79273596  0.22733524     0.73800
N1545       N  0.79517086  0.78671585  0.11278914    -0.44200
C1546       C  0.68612941  0.68921809  0.31154768     0.45300
N1547       N  0.71011563  0.81392314  0.28834622    -0.44200
Co1548     Co  0.75275076  0.74446482  0.14497515     0.73900
C1549       C  0.71111869  0.70210665  0.10817966    -0.04500
C1550       C  0.79830969  0.66918825  0.27814298    -0.04100
N1551       N  0.72557094  0.77280873  0.30778891    -0.23600
N1552       N  0.80642868  0.67989341  0.17184188    -0.44400
H1553       H  0.69244063  0.66188448  0.25168152     0.09300
C1554       C  0.69792895  0.80593162  0.17771742    -0.04500
Cl1555     Cl  0.75287107  0.74232230  0.22456108    -0.47500
C1556       C  0.80619915  0.81107043  0.12535166     0.45100
H1557       H  0.71027644  0.77192832  0.37320628     0.09300
N1558       N  0.70007195  0.77376308  0.12477873    -0.44200
C1559       C  0.74010259  0.97328580  0.44318521     0.04700
C1560       C  0.74143858  0.97374322  0.48877000     0.04700
C1561       C  0.75695893  0.99422447  0.50928469    -0.15800
C1562       C  0.78268675  0.50491721  0.47998627     0.04700
C1563       C  0.77643120  0.51119829  0.43630122     0.04700
C1564       C  0.75486121  0.99334654  0.41918630    -0.15800
H1565       H  0.75412471  0.99300131  0.38425168     0.06700
H1566       H  0.75774094  0.99454143  0.54423507     0.06700
C1567       C  0.98535393  0.72811710  0.98257292     0.04700
C1568       C  0.98852791  0.72739366  0.93733364     0.04700
C1569       C  0.49420768  0.75465881  0.91260042    -0.15800
C1570       C  0.51429024  0.77032203  0.93383304     0.04700
C1571       C  0.51812639  0.76641145  0.97863905     0.04700
C1572       C  0.50414466  0.74505161  0.00027961    -0.15800
H1573       H  0.50724045  0.74198352  0.03465369     0.06700
H1574       H  0.01214353  0.74214678  0.88299295     0.06700
C1575       C  0.99367219  0.76827239  0.44032495     0.04700
C1576       C  0.98971401  0.76387259  0.48533138     0.04700
C1577       C  0.50718466  0.74331969  0.51082353    -0.15800
C1578       C  0.52779190  0.72929639  0.48784849     0.04700
C1579       C  0.52651853  0.72879726  0.44216335     0.04700
C1580       C  0.50498501  0.74218040  0.42077494    -0.15800
H1581       H  0.50418871  0.74184362  0.38586810     0.06700
H1582       H  0.50798825  0.74377154  0.54570760     0.06700
C1583       C  0.76498767  0.96622505  0.99033812     0.04700
C1584       C  0.76622525  0.96755535  0.94476301     0.04700
C1585       C  0.74931829  0.98603059  0.92209712    -0.15800
C1586       C  0.74418622  0.51492381  0.93656285     0.04700
C1587       C  0.74974381  0.51969651  0.98059005     0.04700
C1588       C  0.74660818  0.98358129  0.01221720    -0.15800
H1589       H  0.74560735  0.98270231  0.04715204     0.06700
H1590       H  0.74946777  0.98590641  0.88710312     0.06700
C1591       C  0.86401065  0.92376788  0.84428439     0.82700
N1592       N  0.85448593  0.89851492  0.83351250    -0.75600
C1593       C  0.82871977  0.89134487  0.84303062     0.85100
N1594       N  0.81224357  0.90946536  0.86380434    -0.75600
C1595       C  0.82172914  0.93507743  0.87462162     0.85200
N1596       N  0.84768263  0.94221904  0.86459102    -0.77300
C1597       C  0.89874414  0.66570644  0.86470781     0.82700
N1598       N  0.90397697  0.63978604  0.85021798    -0.75600
C1599       C  0.92907334  0.62876000  0.85395985     0.85100
N1600       N  0.94927869  0.64381248  0.87196264    -0.75600
C1601       C  0.94454877  0.67004034  0.88605023     0.85200
N1602       N  0.91912130  0.68111713  0.88221944    -0.77300
C1603       C  0.69299619  0.54937142  0.85895573     0.82700
N1604       N  0.66887912  0.54156707  0.84186035    -0.75600
C1605       C  0.65323920  0.56048064  0.82084141     0.85100
N1606       N  0.66167298  0.58708514  0.81644221    -0.75600
C1607       C  0.68571672  0.59503963  0.83304870     0.85200
N1608       N  0.70142789  0.57627610  0.85454816    -0.77300
C1609       C  0.58736455  0.85623058  0.87139684     0.82700
N1610       N  0.56935213  0.83662998  0.88526477    -0.75600
C1611       C  0.57795460  0.81034555  0.89453969     0.85100
N1612       N  0.60467430  0.80387664  0.88955701    -0.75600
C1613       C  0.62260163  0.82339425  0.87515905     0.85200
N1614       N  0.61380829  0.84945399  0.86589320    -0.77300
C1615       C  0.59316923  0.62703083  0.54840892     0.82700
N1616       N  0.57385465  0.64352325  0.53059039    -0.75600
C1617       C  0.57767306  0.67141216  0.52646541     0.85100
N1618       N  0.60148714  0.68288445  0.54018834    -0.73200
C1619       C  0.62117750  0.66620311  0.55765100     0.85200
N1620       N  0.61670825  0.63844226  0.56212126    -0.77300
C1621       C  0.82916751  0.60264690  0.58198389     0.82700
N1622       N  0.85433304  0.59291282  0.58956848    -0.75600
C1623       C  0.86240738  0.56864527  0.57235808     0.85100
N1624       N  0.84515594  0.55375105  0.54744277    -0.75600
C1625       C  0.81969634  0.56353471  0.53955369     0.85200
N1626       N  0.81184253  0.58817828  0.55669983    -0.77300
C1627       C  0.69375667  0.79969623  0.82295778     0.44900
N1628       N  0.70970218  0.77353117  0.77336233     0.03800
C1629       C  0.83118825  0.70078528  0.77296144    -0.04100
H1630       H  0.83615987  0.80749891  0.74274535     0.09300
C1631       C  0.79777550  0.78833628  0.60123041    -0.04400
Co1632     Co  0.76060036  0.74432519  0.79943746     0.74200
N1633       N  0.80651344  0.77665320  0.76218961    -0.23600
Co1634     Co  0.80692941  0.74519891  0.71514553     0.74100
C1635       C  0.82497049  0.79760375  0.61382608     0.45000
N1636       N  0.72735566  0.77781487  0.64553898     0.03400
N1637       N  0.80683742  0.77424579  0.66589099     0.03500
N1638       N  0.80347460  0.70205499  0.83086299    -0.44500
H1639       H  0.73009780  0.79023533  0.86738208     0.09300
N1640       N  0.78876126  0.77588062  0.79433967     0.03800
N1641       N  0.80354560  0.71378933  0.66832924     0.03500
C1642       C  0.80801287  0.67732655  0.63050622     0.45100
N1643       N  0.70942782  0.77776266  0.67746255    -0.23100
C1644       C  0.73062339  0.68985314  0.82337445    -0.04000
N1645       N  0.68862822  0.78894863  0.78402747    -0.44200
N1646       N  0.81882398  0.69131143  0.66392574    -0.44400
C1647       C  0.70730345  0.67508440  0.80694916     0.44900
N1648       N  0.79297094  0.71604848  0.79762716     0.03800
N1649       N  0.70599175  0.71739717  0.67419354    -0.23100
N1650       N  0.72847984  0.77271133  0.80342667    -0.23600
N1651       N  0.72270762  0.71787986  0.64102719     0.03400
H1652       H  0.66596474  0.70067352  0.68372964     0.09300
H1653       H  0.77080140  0.68741821  0.58907328     0.09400
N1654       N  0.80940796  0.71623894  0.76412506    -0.23600
N1655       N  0.78813331  0.77398121  0.63565586    -0.23200
N1656       N  0.71201872  0.71279641  0.77040955     0.03800
C1657       C  0.80959448  0.81403309  0.80305644     0.45200
C1658       C  0.69499449  0.80138400  0.67471751    -0.04500
N1659       N  0.78348357  0.71460544  0.64001234    -0.23200
H1660       H  0.78844374  0.78909644  0.56968992     0.09300
N1661       N  0.78978744  0.79793411  0.81928425    -0.44500
H1662       H  0.67936401  0.80788649  0.69692887     0.09300
C1663       C  0.68869526  0.69312875  0.62054639     0.45000
C1664       C  0.72016675  0.78868610  0.83641373    -0.04000
Co1665     Co  0.70885169  0.74528369  0.72395669     0.73800
N1666       N  0.72625974  0.80037971  0.62094399    -0.44200
C1667       C  0.82732439  0.69133541  0.81698916     0.45300
N1668       N  0.69682623  0.69010302  0.77383135    -0.44200
Co1669     Co  0.75531546  0.74613139  0.63982380     0.73900
C1670       C  0.78476324  0.69244342  0.61466640    -0.04500
C1671       C  0.82076797  0.80034692  0.76513397    -0.04100
N1672       N  0.73202394  0.71283763  0.79885967    -0.23600
N1673       N  0.82904587  0.78768699  0.65393122    -0.44400
H1674       H  0.84937913  0.70007094  0.75345744     0.09300
C1675       C  0.68427912  0.70200586  0.66457186    -0.04500
Cl1676     Cl  0.75792512  0.74520027  0.71956860    -0.47500
C1677       C  0.70623248  0.81598648  0.63718818     0.45100
H1678       H  0.74470169  0.68393948  0.84851731     0.09300
N1679       N  0.71267893  0.70419457  0.60754182    -0.44200
C1680       C  0.89573028  0.82298762  0.55978562     0.82700
N1681       N  0.90141873  0.84902102  0.57347023    -0.75600
C1682       C  0.92609086  0.86041641  0.56618750     0.85100
N1683       N  0.94538097  0.84567456  0.54530200    -0.75600
C1684       C  0.94035261  0.81936883  0.53192319     0.85200
N1685       N  0.91536009  0.80781405  0.53940021    -0.77300
C1686       C  0.65129714  0.92711423  0.60264332     0.82700
N1687       N  0.66709229  0.94587827  0.58146162    -0.75600
C1688       C  0.69252351  0.93876730  0.56880411     0.85100
N1689       N  0.70213495  0.91278720  0.57787921    -0.75600
C1690       C  0.68624202  0.89429442  0.59976467     0.85200
N1691       N  0.66090657  0.90148154  0.61181429    -0.77300
C1692       C  0.94226804  0.94099937  0.81521009     0.44900
N1693       N  0.97845519  0.94642649  0.77827709     0.03800
C1694       C  0.56360498  0.55528893  0.74176645    -0.04100
H1695       H  0.95881727  0.58587550  0.72433007     0.09300
C1696       C  0.95404870  0.52339371  0.58449597    -0.04400
Co1697     Co  0.50809658  0.49451717  0.77717232     0.74200
N1698       N  0.97709453  0.54576478  0.73478874    -0.23600
Co1699     Co  0.50935145  0.54261802  0.69325233     0.74100
C1700       C  0.93988221  0.54750415  0.60031489     0.45000
N1701       N  0.98045943  0.95863167  0.64985771     0.03400
N1702       N  0.97532980  0.54137711  0.63868987     0.03500
N1703       N  0.56181535  0.52297438  0.79556021    -0.44500
H1704       H  0.94821115  0.47801351  0.82565771     0.09300
N1705       N  0.97649911  0.52799029  0.76737287     0.03800
N1706       N  0.53764025  0.54058217  0.64441100     0.03500
C1707       C  0.56653771  0.55463784  0.59727815     0.45100
N1708       N  0.98089941  0.94103579  0.68267243    -0.23100
C1709       C  0.54911808  0.95424451  0.83217434    -0.04000
N1710       N  0.95667110  0.93044406  0.78208375    -0.44200
N1711       N  0.55475448  0.56087389  0.63501163    -0.44400
C1712       C  0.55973212  0.92751068  0.81767028     0.44900
N1713       N  0.53975506  0.52254238  0.77147752     0.03800
N1714       N  0.53573411  0.94459995  0.67423342    -0.23100
N1715       N  0.97832337  0.96702837  0.80616637    -0.23600
N1716       N  0.53596558  0.96332961  0.64263613     0.03400
H1717       H  0.56483830  0.91346701  0.69416194     0.09300
H1718       H  0.55669871  0.51790690  0.55260652     0.09400
N1719       N  0.54027480  0.54106431  0.73959421    -0.23600
N1720       N  0.97558326  0.52111219  0.61022327    -0.23200
N1721       N  0.53281728  0.94398362  0.76981243     0.03800
C1722       C  0.94948789  0.56072416  0.78584937     0.45200
C1723       C  0.96347487  0.92035004  0.67506870    -0.04500
N1724       N  0.53672250  0.52131000  0.61459858    -0.23200
H1725       H  0.94845562  0.50914336  0.55925209     0.09300
N1726       N  0.96073555  0.53656720  0.79926895    -0.44500
H1727       H  0.96100519  0.90182916  0.69477964     0.09300
C1728       C  0.57297757  0.94133664  0.63477458     0.45000
C1729       C  0.95627622  0.96519705  0.83098663    -0.04000
Co1730     Co  0.00921457  0.94414642  0.73145802     0.73800
N1731       N  0.96389299  0.95053895  0.61879504    -0.44200
C1732       C  0.57751243  0.54321878  0.77880739     0.45300
N1733       N  0.54831332  0.92241341  0.77930896    -0.44200
Co1734     Co  0.50729630  0.48984227  0.61805476     0.73900
C1735       C  0.55429727  0.52850188  0.58299842    -0.04500
C1736       C  0.96048489  0.56696328  0.74332571    -0.04100
N1737       N  0.53261624  0.96289116  0.80021801    -0.23600
N1738       N  0.95374959  0.55758110  0.63433808    -0.44400
H1739       H  0.57038292  0.57119707  0.71932272     0.09300
C1740       C  0.55855703  0.92956747  0.67173917    -0.04500
Cl1741     Cl  0.50758331  0.49216372  0.69767671    -0.47500
C1742       C  0.95198920  0.92689218  0.63304570     0.45100
H1743       H  0.55158395  0.96427264  0.86299842     0.09300
N1744       N  0.55809001  0.96233765  0.61862717    -0.44200
C1745       C  0.60070008  0.93700341  0.62361120    -0.10800
C1746       C  0.62402719  0.93358642  0.61400841    -0.12400
C1747       C  0.93282066  0.88662588  0.58510744    -0.10800
C1748       C  0.94025026  0.90654471  0.60518179    -0.12400
C1749       C  0.70064610  0.84374697  0.62280548    -0.10800
C1750       C  0.69565361  0.86705644  0.61088807    -0.12400
C1751       C  0.84766926  0.80514044  0.58631917    -0.10800
C1752       C  0.86932507  0.81158466  0.57040789    -0.12400
C1753       C  0.81624169  0.65067804  0.61569915    -0.10800
C1754       C  0.82148073  0.62850872  0.60039023    -0.12400
C1755       C  0.91261489  0.55453792  0.58945968    -0.10800
C1756       C  0.88948082  0.55961450  0.58036945    -0.12400
C1757       C  0.58717713  0.59823929  0.55771158    -0.10800
C1758       C  0.57937336  0.57606516  0.57166512    -0.12400
C1759       C  0.64633274  0.67754478  0.57399841    -0.10800
C1760       C  0.66691083  0.68470475  0.59222090    -0.12400
C1761       C  0.65019375  0.81591704  0.86493909    -0.10800
C1762       C  0.67189456  0.80945998  0.84977783    -0.12400
C1763       C  0.57829271  0.88356378  0.85906773    -0.10800
C1764       C  0.57069003  0.90529951  0.84355345    -0.12400
C1765       C  0.69432823  0.62324128  0.82655899    -0.10800
C1766       C  0.69992286  0.64705931  0.81803412    -0.12400
C1767       C  0.60465033  0.54842984  0.79229827    -0.10800
C1768       C  0.62720961  0.55296628  0.80480619    -0.12400
C1769       C  0.93472483  0.60230311  0.83501046    -0.10800
C1770       C  0.94024333  0.58183672  0.81470394    -0.12400
C1771       C  0.84991046  0.68358573  0.84406745    -0.10800
C1772       C  0.87194456  0.67690653  0.85780895    -0.12400
C1773       C  0.81479894  0.84155841  0.81767532    -0.10800
C1774       C  0.81946486  0.86456684  0.83035167    -0.12400
C1775       C  0.89146470  0.93037715  0.83422144    -0.10800
C1776       C  0.91477394  0.93438353  0.82500831    -0.12400
C1777       C  0.72828548  0.53562297  0.91116470    -0.14000
C1778       C  0.70954075  0.52841842  0.88207761    -0.29200
H1779       H  0.73105367  0.55746265  0.91864773     0.15000
H1780       H  0.70510182  0.50658019  0.87696321     0.15600
C1781       C  0.78256920  0.94732548  0.92015841    -0.14000
C1782       C  0.80418440  0.95530763  0.89679981    -0.29200
H1783       H  0.77792311  0.92537018  0.92420909     0.15000
H1784       H  0.80994778  0.97711841  0.89594469     0.15600
C1785       C  0.55013420  0.71480863  0.51207819    -0.14000
C1786       C  0.55602399  0.68786358  0.50475073    -0.29200
H1787       H  0.56078883  0.72591181  0.53720582     0.15000
H1788       H  0.54316758  0.67649271  0.48264656     0.15600
C1789       C  0.96693951  0.77720362  0.50981717    -0.14000
C1790       C  0.96228493  0.80479818  0.50809954    -0.29200
H1791       H  0.95474140  0.76424260  0.53121365     0.15000
H1792       H  0.97645680  0.81786922  0.49025870     0.15600
C1793       C  0.55910843  0.78908769  0.91240628    -0.14000
C1794       C  0.53180635  0.79027710  0.90911929    -0.29200
H1795       H  0.56815815  0.77187429  0.93023004     0.15000
H1796       H  0.52228285  0.80600828  0.88886031     0.15600
C1797       C  0.96790748  0.71311817  0.91035167    -0.14000
C1798       C  0.96708867  0.68531463  0.90687889    -0.29200
H1799       H  0.95218649  0.72575646  0.89552062     0.15000
H1800       H  0.98363406  0.67311311  0.92030193     0.15600
C1801       C  0.80308358  0.52063024  0.50509211    -0.14000
C1802       C  0.80050736  0.54799477  0.51227845    -0.29200
H1803       H  0.81912697  0.50895056  0.52093021     0.15000
H1804       H  0.78307804  0.55903556  0.49931627     0.15600
C1805       C  0.70911992  0.95949019  0.54534071    -0.14000
C1806       C  0.72743745  0.95231768  0.51542009    -0.29200
H1807       H  0.70454177  0.98134087  0.55005915     0.15000
H1808       H  0.73021202  0.93057298  0.50740245     0.15600
C1809       C  0.70620084  0.54082319  0.00306061    -0.14000
C1810       C  0.73357719  0.54053700  0.00555745    -0.29200
H1811       H  0.69628517  0.52459164  0.98471845     0.15000
H1812       H  0.74402493  0.55501047  0.02642483     0.15600
C1813       C  0.68870822  0.63109908  0.07302363    -0.10800
C1814       C  0.69439539  0.65194259  0.09260846    -0.12400
C1815       C  0.54804180  0.71512790  0.41616853    -0.14000
C1816       C  0.54188363  0.69709420  0.38483823    -0.29200
H1817       H  0.56907460  0.71806106  0.42543986     0.15000
H1818       H  0.52071690  0.69255152  0.37820959     0.15600
C1819       C  0.63514221  0.68175729  0.33370870    -0.10800
C1820       C  0.65863694  0.68524855  0.32488806    -0.12400
C1821       C  0.81842717  0.53422760  0.41066893    -0.14000
C1822       C  0.79113319  0.53361737  0.41220466    -0.29200
H1823       H  0.82969328  0.51692388  0.42457400     0.15000
H1824       H  0.77941585  0.54947504  0.39543501     0.15600
C1825       C  0.82879602  0.63134000  0.36150891    -0.10800
C1826       C  0.82023463  0.65313022  0.34742674    -0.12400
C1827       C  0.53444176  0.78660186  0.00365218    -0.14000
C1828       C  0.55283593  0.77871202  0.03313572    -0.29200
H1829       H  0.53224598  0.80853976  0.99567374     0.15000
H1830       H  0.55673422  0.75673203  0.03857836     0.15600
C1831       C  0.65729950  0.79870983  0.12609161    -0.10800
C1832       C  0.63488107  0.80224692  0.11219324    -0.12400
C1833       C  0.59366937  0.56034997  0.06562296    -0.10800
C1834       C  0.61545764  0.56694396  0.05070578    -0.12400
C1835       C  0.56214721  0.59305078  0.28746626    -0.10800
C1836       C  0.56639684  0.61603387  0.30059432    -0.12400
C1837       C  0.92334905  0.56091172  0.32679104    -0.10800
C1838       C  0.90272718  0.56682691  0.34565722    -0.12400
C1839       C  0.56307131  0.89487464  0.10518575    -0.10800
C1840       C  0.56733667  0.87168766  0.09283264    -0.12400
C1841       C  0.95121677  0.71337952  0.03777929    -0.14000
C1842       C  0.96813505  0.70724165  0.00526103    -0.29200
H1843       H  0.94782081  0.73489690  0.04660685     0.15000
H1844       H  0.96970415  0.68580930  0.99494513     0.15600
C1845       C  0.95343822  0.59501683  0.10148719    -0.10800
C1846       C  0.94527303  0.61802014  0.09314260    -0.12400
C1847       C  0.87108136  0.68065874  0.11590385    -0.10800
C1848       C  0.84812527  0.68422608  0.12774224    -0.12400
C1849       C  0.72375664  0.95177013  0.42020016    -0.14000
C1850       C  0.69706375  0.94802630  0.42816539    -0.29200
H1851       H  0.73369337  0.93940363  0.39568613     0.15000
H1852       H  0.68677715  0.96229420  0.44966750     0.15600
C1853       C  0.59052673  0.92306317  0.34547466    -0.10800
C1854       C  0.61118409  0.91795765  0.36495229    -0.12400
C1855       C  0.68508714  0.85328040  0.37132206    -0.10800
C1856       C  0.69191726  0.83153065  0.35535393    -0.12400
C1857       C  0.80923733  0.94491869  0.00959868    -0.14000
C1858       C  0.78216477  0.94623702  0.01538073    -0.29200
H1859       H  0.81900145  0.96023888  0.98873852     0.15000
H1860       H  0.77240164  0.93268585  0.03898294     0.15600
C1861       C  0.82345957  0.85324053  0.07779014    -0.10800
C1862       C  0.81593145  0.83248979  0.09653157    -0.12400
C1863       C  0.89843988  0.91648813  0.06115187    -0.10800
C1864       C  0.91998304  0.92352971  0.07590489    -0.12400
C1865       C  0.95106311  0.78755697  0.41028948    -0.14000
C1866       C  0.97808141  0.78877379  0.41432337    -0.29200
H1867       H  0.93989718  0.77123401  0.42711299     0.15000
H1868       H  0.98952969  0.80366085  0.39497808     0.15600
C1869       C  0.86823748  0.81091419  0.33366137    -0.10800
C1870       C  0.84558373  0.80548259  0.32263008    -0.12400
C1871       C  0.94371931  0.87258112  0.32095458    -0.10800
C1872       C  0.94939367  0.89475529  0.30488360    -0.12400
loop_ 
_geom_bond_atom_site_label_1 
_geom_bond_atom_site_label_2 
_geom_bond_distance 
_geom_bond_site_symmetry_2 
_ccdc_geom_bond_type 
C1            N2   1.358       .  A
C1            N6   1.350       .  A
C1          C465   1.429       .  S
N2            C3   1.363       .  A
C3            N4   1.359       .  A
C3          C461   1.476       .  S
N4            C5   1.357       .  A
C5            N6   1.350       .  A
C5          C467   1.426       .  S
C7            N8   1.357       .  A
C7           N12   1.366       .  A
C7          C459   1.448       .  S
N8            C9   1.355       .  A
C9           N10   1.358       .  A
C9          C457   1.442       .  S
N10          C11   1.361       .  A
C11          N12   1.368       .  A
C11         C453   1.489       .  S
C13          N14   1.356       .  A
C13          N18   1.365       .  A
C13         C451   1.444       .  S
N14          C15   1.355       .  A
C15          N16   1.360       .  A
C15         C450   1.445       .  S
N16          C17   1.364       .  A
C17          N18   1.365       .  A
C17         C446   1.488       .  S
C19          N20   1.357       .  A
C19          N24   1.350       .  A
C19         C442   1.425       .  S
N20          C21   1.361       .  A
C21          N22   1.361       .  A
C21         C437   1.477       .  S
N22          C23   1.359       .  A
C23          N24   1.349       .  A
C23         C443   1.429       .  S
C25          N43   1.345       .  A
C25         C449   1.444       .  S
C25          C62   1.465       .  S
N26          N43   1.322       .  A
N26          N48   1.316       .  A
N26         Co63   2.068       .  S
C27          N52   1.337       .  A
C27          C65   1.452       .  S
C27          H72   1.082       .  S
H28          C69   1.081       .  S
C29          N53   1.351       .  A
C29          C33   1.470       .  S
C29         H994   1.082       .  S
Co30         N48   2.090       .  S
Co30         N38   2.073   1_455  S
Co30        N538   2.065       .  S
Co30       N1450   2.089   1_455  S
Co30        Cl74   2.475       .  S
N31          C69   1.342       .  A
N31         N974   1.325       .  A
N31         Co32   2.104       .  S
Co32         N35   2.057       .  S
Co32        N520   2.059       .  S
Co32        N507   2.107       .  S
Co32      Cl1010   2.426       .  S
C33          N71   1.341       .  A
C33         C460   1.447       .  S
N34          N41   1.327       .  A
N34          N64   1.324       .  A
N34         Co67   2.080       .  S
N35          N53   1.318       .  A
N35          N71   1.321       .  A
N36          C65   1.354       .  A
N36          N46   1.329       .  A
H37          C62   1.082       .  S
N38          N59   1.322       .  A
N38         N967   1.325       .  A
N39          N57   1.323       .  A
N39          N44   1.325       .  A
N39        Co500   2.101   1_545  S
C40          N44   1.350       .  A
C40         C441   1.426       .  S
C40          C68   1.446       .  S
N41          C56   1.343       .  A
N41         Co63   2.115       .  S
C42          N70   1.335       .  A
C42          C45   1.447       .  S
C42          H76   1.081       .  S
C45          N66   1.348       .  A
C45         C431   1.424       .  S
N46          N52   1.316       .  A
N46       Co1434   2.095   1_545  S
N47          C73   1.335       .  A
N47          N49   1.316       .  A
N47        Co531   2.061   1_545  S
N48          C62   1.348       .  A
N49          N77   1.330       .  A
N49        Co535   2.094   1_545  S
H50          C73   1.082       .  S
H51          C68   1.081       .  S
N52        Co500   2.064   1_545  S
N53       Co1003   2.107       .  S
N54          N66   1.324       .  A
N54          N70   1.324       .  A
N54        Co531   2.099   1_545  S
C55         N995   1.342       .  A
C55         C468   1.427       .  S
C55          C69   1.457       .  S
C56          C75   1.460       .  S
C56          H60   1.081       .  S
N57          C68   1.336       .  A
N57       Co1471   2.064   1_545  S
H58         C965   1.082       .  S
N59         C991   1.344       .  A
C61          N77   1.354       .  A
C61         C429   1.440       .  S
C61          C73   1.449       .  S
Co63        N515   2.055       .  S
Co63        N522   2.122       .  S
Co63        Cl74   2.426       .  S
N64          C75   1.345       .  A
C65         C433   1.443       .  S
Co67        N517   2.102       .  S
Co67        N989   2.110   1_455  S
Co67       N1461   2.081   1_455  S
Co67        Cl74   2.477       .  S
N70        Co498   2.065   1_545  S
Cl74       Co968   2.426   1_455  S
C75         C435   1.436       .  S
C78          N79   1.351       .  A
C78          N83   1.359       .  A
C78         C428   1.432       .  S
N79          C80   1.352       .  A
C80          N81   1.360       .  A
C80         C436   1.435       .  S
N81          C82   1.365       .  A
C82          N83   1.361       .  A
C82         C424   1.482       .  S
C84          N85   1.356       .  A
C84          N89   1.361       .  A
C84         C434   1.443       .  S
N85          C86   1.357       .  A
C86          N87   1.361       .  A
C86         C421   1.441       .  S
N87          C88   1.363       .  A
C88          N89   1.363       .  A
C88         C417   1.484       .  S
C90          N91   1.357       .  A
C90          N95   1.364       .  A
C90         C412   1.474       .  S
N91          C92   1.354       .  A
C92          N93   1.349       .  A
C92         C432   1.425       .  S
N93          C94   1.352       .  A
C94          N95   1.361       .  A
C94         C415   1.430       .  S
C96          N97   1.357       .  A
C96         N101   1.355       .  A
C96         C430   1.441       .  S
N97          C98   1.361       .  A
C98          N99   1.365       .  A
C98         C405   1.484       .  S
N99         C100   1.365       .  A
C100        N101   1.357       .  A
C100        C409   1.444       .  S
C102        N120   1.351       .  A
C102        C466   1.430       .  S
C102        C139   1.447       .  S
N103        N120   1.326       .  A
N103        N125   1.324       .  A
N103       Co140   2.110       .  S
C104        N129   1.342       .  A
C104        C142   1.460       .  S
C104        H149   1.081       .  S
H105        C146   1.082       .  S
C106        N130   1.333       .  A
C106        C110   1.444       .  S
C106        H135   1.082       .  S
Co107       N125   2.067       .  S
Co107       N115   2.099       .  S
Co107       N147   2.100       .  S
Co107       N123   2.072       .  S
Co107      Cl151   2.475       .  S
N108        C146   1.335       .  A
N108        N115   1.316       .  A
N108       Co109   2.055       .  S
Co109       N112   2.112       .  S
Co109       N129   2.110       .  S
Co109       N116   2.066       .  S
Co109      Cl151   2.428       .  S
C110        N148   1.353       .  A
C110        C444   1.429       .  S
N111        N118   1.315       .  A
N111        N141   1.329       .  A
N111       Co144   2.094       .  S
N112        N130   1.324       .  A
N112        N148   1.327       .  A
N113        C142   1.343       .  A
N113        N123   1.322       .  A
H114        C139   1.081       .  S
N115        N136   1.330       .  A
N116        N134   1.317       .  A
N116        N121   1.323       .  A
C117        N121   1.344       .  A
C117        C410   1.444       .  S
C117        C145   1.464       .  S
N118        C133   1.337       .  A
N118       Co140   2.061       .  S
C119        N147   1.349       .  A
C119        C122   1.467       .  S
C119        H153   1.082       .  S
C122        N143   1.342       .  A
C122        C452   1.443       .  S
N123        N129   1.326       .  A
N124        C150   1.344       .  A
N124        N126   1.325       .  A
N124       Co140   2.111       .  S
N125        C139   1.336       .  A
N126        N154   1.322       .  A
N126       Co144   2.069       .  S
H127        C150   1.081       .  S
H128        C145   1.082       .  S
N130       Co144   2.061       .  S
N131        N143   1.321       .  A
N131        N147   1.318       .  A
N131       Co140   2.060       .  S
C132        N136   1.355       .  A
C132        C422   1.440       .  S
C132        C146   1.446       .  S
C133        C152   1.451       .  S
C133        H137   1.082       .  S
N134        C145   1.347       .  A
N134       Co144   2.093       .  S
C138        N154   1.343       .  A
C138        C427   1.433       .  S
C138        C150   1.460       .  S
Co140      Cl151   2.427       .  S
N141        C152   1.354       .  A
C142        C416   1.432       .  S
Co144      Cl151   2.472       .  S
C152        C458   1.441       .  S
C155        C445   1.500       .  S
C155        C156   1.415       .  A
C155        C160   1.413       .  A
C156        C402   1.483       .  S
C156        C157   1.406       .  A
C157        H162   1.085       .  S
C157        C626   1.401       .  A
C158        C397   1.489       .  S
C158        C159   1.415       .  A
C158        C625   1.405   1_545  A
C159        C418   1.491       .  S
C159        C628   1.412   1_545  A
C160        H161   1.084       .  S
C160        C627   1.414       .  A
C163        C438   1.482   1_556  S
C163        C164   1.416       .  A
C163       C1104   1.405   1_556  A
C164        C393   1.498       .  S
C164       C1101   1.412       .  A
C165       H1106   1.085       .  S
C165        C166   1.410   1_655  A
C165       C1100   1.413       .  A
C166        C390   1.498       .  S
C166        C167   1.415       .  A
C167        C423   1.491   1_556  S
C167        C168   1.407   1_556  A
C168        H169   1.085       .  S
C168       C1099   1.407   1_454  A
H170       C1101   1.085       .  S
C171        C462   1.486       .  S
C171        C172   1.414       .  A
C171       C1112   1.403       .  A
C172        C385   1.498       .  S
C172       C1109   1.412       .  A
C173        H178   1.084       .  S
C173        C174   1.411       .  A
C173       C1108   1.412   1_455  A
C174        C381   1.496       .  S
C174        C175   1.415       .  A
C175        C411   1.486       .  S
C175        C176   1.406       .  A
C176        H177   1.084       .  S
C176       C1107   1.404   1_455  A
C179        C454   1.500   1_556  S
C179        C180   1.419       .  A
C179        C184   1.413   1_556  A
C180        C377   1.482       .  S
C180        C181   1.404       .  A
C181        H186   1.085       .  S
C181        C650   1.405       .  A
C182        C373   1.485       .  S
C182        C183   1.415       .  A
C182        C649   1.405   1_545  A
C183        C406   1.496   1_556  S
C183        C652   1.411   1_546  A
C184        H185   1.085       .  S
C184        C651   1.413   1_554  A
C187        N188   1.348       .  A
C187        N192   1.355       .  A
C187        C371   1.423       .  S
N188        C189   1.349       .  A
C189        N190   1.361       .  A
C189        C370   1.430       .  S
N190        C191   1.365       .  A
C191        N192   1.358       .  A
C191        C378   1.478       .  S
C193        N194   1.356       .  A
C193        N198   1.359       .  A
C193        C368   1.443       .  S
N194        C195   1.358       .  A
C195        N196   1.365       .  A
C195        C365   1.447       .  S
N196        C197   1.366       .  A
C197        N198   1.361       .  A
C197        C394   1.486       .  S
C199        N200   1.358       .  A
C199        N204   1.365       .  A
C199        C374   1.474       .  S
N200        C201   1.354       .  A
C201        N202   1.346       .  A
C201        C364   1.420       .  S
N202        C203   1.347       .  A
C203        N204   1.362       .  A
C203        C361   1.427       .  S
C205        N206   1.364       .  A
C205        N210   1.355       .  A
C205        C359   1.440       .  S
N206        C207   1.365       .  A
C207        N208   1.364       .  A
C207        C389   1.486       .  S
N208        C209   1.360       .  A
C209        N210   1.354       .  A
C209        C357   1.444       .  S
C211        N212   1.357       .  A
C211        N216   1.353       .  A
C211        C353   1.438       .  S
N212        C213   1.361       .  A
C213        N214   1.367       .  A
C213        C382   1.484       .  S
N214        C215   1.366       .  A
C215        N216   1.355       .  A
C215        C355   1.443       .  S
C217        N218   1.349       .  A
C217        N222   1.362       .  A
C217        C350   1.430       .  S
N218        C219   1.348       .  A
C219        N220   1.357       .  A
C219        C352   1.426       .  S
N220        C221   1.360       .  A
C221        N222   1.365       .  A
C221        C398   1.478       .  S
C223        N241   1.343       .  A
C223        C358   1.443       .  S
C223        C260   1.466       .  S
N224        N241   1.321       .  A
N224        N246   1.316       .  A
N224       Co261   2.060       .  S
C225        N250   1.336       .  A
C225        C263   1.450       .  S
C225        H270   1.082       .  S
H226        C267   1.081       .  S
C227        N251   1.348       .  A
C227        C231   1.465       .  S
C227        H256   1.082       .  S
Co228       N246   2.094       .  S
Co228       N236   2.060       .  S
Co228       N268   2.052       .  S
Co228       N244   2.096       .  S
Co228      Cl272   2.475       .  S
N229        C267   1.345       .  A
N229        N236   1.326       .  A
N229       Co230   2.122       .  S
Co230       N233   2.061       .  S
Co230       N250   2.059       .  S
Co230       N237   2.122       .  S
Co230      Cl272   2.427       .  S
C231        N269   1.343       .  A
C231        C347   1.444       .  S
N232        N239   1.326       .  A
N232        N262   1.321       .  A
N232       Co265   2.061       .  S
N233        N251   1.317       .  A
N233        N269   1.322       .  A
N234        C263   1.354       .  A
N234        N244   1.330       .  A
H235        C260   1.082       .  S
N236        N257   1.321       .  A
N237        N255   1.325       .  A
N237        N242   1.328       .  A
C238        N242   1.354       .  A
C238        C349   1.431       .  S
C238        C266   1.443       .  S
N239        C254   1.344       .  A
N239       Co261   2.117       .  S
C240        N268   1.332       .  A
C240        C243   1.440       .  S
C240        H274   1.082       .  S
C243        N264   1.355       .  A
C243        C362   1.429       .  S
N244        N250   1.315       .  A
N245        C271   1.336       .  A
N245        N247   1.316       .  A
N245       Co261   2.055       .  S
N246        C260   1.348       .  A
N247        N275   1.330       .  A
N247       Co265   2.097       .  S
H248        C271   1.082       .  S
H249        C266   1.081       .  S
N251       Co265   2.095       .  S
N252        N264   1.328       .  A
N252        N268   1.324       .  A
N252       Co261   2.123       .  S
C253        N257   1.340       .  A
C253        C369   1.432       .  S
C253        C267   1.464       .  S
C254        C273   1.462       .  S
C254        H258   1.081       .  S
N255        C266   1.334       .  A
N255       Co265   2.059       .  S
C259        N275   1.354       .  A
C259        C356   1.443       .  S
C259        C271   1.448       .  S
Co261      Cl272   2.424       .  S
N262        C273   1.340       .  A
C263        C367   1.442       .  S
Co265      Cl272   2.473       .  S
C273        C345   1.430       .  S
C276        N277   1.357       .  A
C276        N281   1.365       .  A
C276        C348   1.444       .  S
N277        C278   1.354       .  A
C278        N279   1.358       .  A
C278        C343   1.444       .  S
N279        C280   1.362       .  A
C280        N281   1.366       .  A
C280        C386   1.485       .  S
C282        N283   1.354       .  A
C282        N287   1.347       .  A
C282        C342   1.420       .  S
N283        C284   1.357       .  A
C284        N285   1.364       .  A
C284        C401   1.472       .  S
N285        C286   1.361       .  A
C286        N287   1.349       .  A
C286        C346   1.428       .  S
C288        N306   1.350       .  A
C288        C372   1.423       .  S
C288        C325   1.443       .  S
N289        N306   1.325       .  A
N289        N311   1.324       .  A
N289       Co326   2.104       .  S
C290        N315   1.340       .  A
C290        C328   1.456       .  S
C290        H335   1.081       .  S
H291        C332   1.082       .  S
C292        N316   1.333       .  A
C292        C296   1.444       .  S
C292        H321   1.082       .  S
Co293       N309   2.059   1_565  S
Co293      N1715   2.057   1_455  S
Co293      N1237   2.085   1_465  S
Co293       N801   2.090       .  S
Co293      Cl337   2.463       .  S
N294        C332   1.336       .  A
N294        N301   1.316       .  A
N294      Co1231   2.059       .  S
Co295       N315   2.095       .  S
Co295       N302   2.070       .  S
Co295      N1230   2.065   1_455  S
Co295      N1234   2.101   1_455  S
Co295      Cl337   2.432   1_545  S
C296        N334   1.352       .  A
C296        C351   1.426       .  S
N297        N304   1.317       .  A
N297        N327   1.330       .  A
N297      Co1734   2.098       .  S
N298        N316   1.324       .  A
N298        N334   1.326       .  A
N298      Co1231   2.112       .  S
N299        C328   1.341       .  A
N299        N309   1.319       .  A
H300        C793   1.081       .  S
N301        N322   1.331       .  A
N301      Co1229   2.103   1_545  S
N302        N320   1.317       .  A
N302        N307   1.322       .  A
C303        N307   1.345       .  A
C303        C354   1.437       .  S
C303        C331   1.461       .  S
N304        C319   1.336       .  A
N304       Co326   2.064       .  S
C305        N333   1.346       .  A
C305        C308   1.463       .  S
C305        H339   1.082       .  S
C308        N329   1.344       .  A
C308        C360   1.440       .  S
N309        N315   1.323       .  A
N310        C336   1.339       .  A
N310        N312   1.323       .  A
N310      Co1262   2.091       .  S
N311        C325   1.333       .  A
N311      Co1697   2.059       .  S
N312        N340   1.319       .  A
N312       Co798   2.060       .  S
H313        C336   1.081       .  S
H314        C331   1.082       .  S
N316      Co1266   2.058   1_545  S
N317        N329   1.322       .  A
N317        N333   1.318       .  A
N317      Co1262   2.068       .  S
C318        N322   1.357       .  A
C318        C366   1.446       .  S
C318        C332   1.447       .  S
C319        C338   1.450       .  S
C319        H323   1.082       .  S
N320        C331   1.345       .  A
N320       Co330   2.085   1_545  S
C324        N340   1.341       .  A
C324        C341   1.420       .  S
C324        C336   1.455       .  S
C325        H768   1.081       .  S
Co326      N1246   2.106       .  S
Co326      N1253   2.066       .  S
Co326     Cl1741   2.429       .  S
N327        C338   1.355       .  A
C328        C363   1.421       .  S
Co330      N1701   2.083   1_455  S
Co330       N780   2.063       .  S
Co330      N1252   2.059   1_465  S
Co330      Cl337   2.460       .  S
N333       Co761   2.090       .  S
Cl337     Co1730   2.432       .  S
C338        C344   1.443       .  S
C341        C342   1.196       .  T
C343        C344   1.210       .  T
C345        C346   1.202       .  T
C347        C348   1.211       .  T
C349        C350   1.203       .  T
C351        C352   1.200       .  T
C353        C354   1.207       .  T
C355        C356   1.211       .  T
C357        C358   1.211       .  T
C359        C360   1.209       .  T
C361        C362   1.202       .  T
C363        C364   1.197       .  T
C365        C366   1.212       .  T
C367        C368   1.210       .  T
C369        C370   1.204       .  T
C371        C372   1.198       .  T
C373        C374   1.340       .  D
C373        H375   1.087       .  S
C374        H376   1.088       .  S
C377        C378   1.341       .  D
C377        H379   1.087       .  S
C378        H380   1.087       .  S
C381        C382   1.348       .  D
C381        H383   1.086       .  S
C382        H384   1.087       .  S
C385        C386   1.351       .  D
C385        H387   1.086       .  S
C386        H388   1.087       .  S
C389        C390   1.352       .  D
C389        H391   1.087       .  S
C390        H392   1.086       .  S
C393        C394   1.349       .  D
C393        H395   1.086       .  S
C394        H396   1.087       .  S
C397        C398   1.343       .  D
C397        H399   1.087       .  S
C398        H400   1.087       .  S
C401        C402   1.339       .  D
C401        H403   1.087       .  S
C402        H404   1.087       .  S
C405        C406   1.349       .  D
C405        H407   1.086   1_554  S
C406        H408   1.086       .  S
C409        C410   1.211       .  T
C411        C412   1.341       .  D
C411        H413   1.087       .  S
C412        H414   1.087       .  S
C415        C416   1.203       .  T
C417        C418   1.349       .  D
C417        H419   1.087       .  S
C418        H420   1.086       .  S
C421        C422   1.209       .  T
C423        C424   1.343       .  D
C423        H425   1.087       .  S
C424        H426   1.086       .  S
C427        C428   1.204       .  T
C429        C430   1.209       .  T
C431        C432   1.199       .  T
C433        C434   1.210       .  T
C435        C436   1.206       .  T
C437        C438   1.344       .  D
C437        H439   1.087       .  S
C438        H440   1.086       .  S
C441        C442   1.200       .  T
C443        C444   1.202       .  T
C445        C446   1.352       .  D
C445        H447   1.086       .  S
C446        H448   1.087       .  S
C449        C450   1.211       .  T
C451        C452   1.211       .  T
C453        C454   1.348       .  D
C453        H455   1.087   1_554  S
C454        H456   1.086       .  S
C457        C458   1.209       .  T
C459        C460   1.213       .  T
C461        C462   1.342       .  D
C461        H463   1.086       .  S
C462        H464   1.086       .  S
C465        C466   1.202       .  T
C467        C468   1.200       .  T
C469        N470   1.363       .  A
C469        N474   1.348       .  A
C469        C933   1.428       .  S
N470        C471   1.366       .  A
C471        N472   1.359       .  A
C471        C929   1.478       .  S
N472        C473   1.355       .  A
C473        N474   1.346       .  A
C473        C935   1.423       .  S
C475        N476   1.355       .  A
C475        N480   1.357       .  A
C475        C927   1.439       .  S
N476        C477   1.356       .  A
C477        N478   1.364       .  A
C477        C925   1.441       .  S
N478        C479   1.364       .  A
C479        N480   1.360       .  A
C479        C921   1.481       .  S
C481        N482   1.355       .  A
C481        N486   1.362       .  A
C481        C919   1.440       .  S
N482        C483   1.354       .  A
C483        N484   1.361       .  A
C483        C918   1.442       .  S
N484        C485   1.364       .  A
C485        N486   1.365       .  A
C485        C914   1.486       .  S
C487        N488   1.358       .  A
C487        N492   1.349       .  A
C487        C910   1.424       .  S
N488        C489   1.362       .  A
C489        N490   1.359       .  A
C489        C905   1.476       .  S
N490        C491   1.358       .  A
C491        N492   1.348       .  A
C491        C911   1.423       .  S
C493        N511   1.346       .  A
C493        C917   1.442       .  S
C493        C530   1.462       .  S
N494        N511   1.323       .  A
N494        N516   1.317       .  A
N494       Co531   2.069       .  S
C495        N520   1.336       .  A
C495        C533   1.451       .  S
C495        H540   1.082       .  S
H496        C537   1.081       .  S
C497        N521   1.347       .  A
C497        C501   1.463       .  S
C497       H1462   1.082       .  S
Co498       N516   2.088       .  S
Co498       N506   2.066   1_455  S
Co498       N982   2.095   1_465  S
Co498      Cl542   2.467       .  S
N499        C537   1.342       .  A
N499       N1442   1.324       .  A
N499       Co500   2.101       .  S
Co500       N503   2.065       .  S
Co500     Cl1478   2.431       .  S
C501        N539   1.344       .  A
C501        C928   1.439       .  S
N502        N509   1.324       .  A
N502        N532   1.320       .  A
N502       Co535   2.060       .  S
N503        N521   1.317       .  A
N503        N539   1.321       .  A
N504        C533   1.352       .  A
N504        N514   1.327       .  A
H505        C530   1.082       .  S
N506       N1435   1.325       .  A
N506        N527   1.322       .  A
N507        N525   1.324       .  A
N507        N512   1.325       .  A
C508        N512   1.350       .  A
C508        C909   1.426       .  S
C508        C536   1.446       .  S
N509        C524   1.341       .  A
N509       Co531   2.105       .  S
C510        N538   1.335       .  A
C510        C513   1.445       .  S
C510        H544   1.082       .  S
C513        N534   1.355       .  A
C513        C899   1.436       .  S
N514        N520   1.315       .  A
N514       Co966   2.085       .  S
N515        C541   1.336       .  A
N515        N517   1.317       .  A
N516        C530   1.345       .  A
N517        N545   1.330       .  A
H518        C541   1.082       .  S
H519        C536   1.081       .  S
N521      Co1471   2.089       .  S
N522        N534   1.329       .  A
N522        N538   1.324       .  A
C523       N1463   1.340       .  A
C523        C936   1.424       .  S
C523        C537   1.458       .  S
C524        C543   1.459       .  S
C524        H528   1.081       .  S
N525        C536   1.335       .  A
N525      Co1003   2.064       .  S
H526       C1433   1.082       .  S
N527       C1459   1.341       .  A
C529        N545   1.355       .  A
C529        C897   1.443       .  S
C529        C541   1.447       .  S
Co531      Cl542   2.428       .  S
N532        C543   1.340       .  A
C533        C901   1.437       .  S
Co535      N1457   2.091   1_455  S
Co535       N993   2.062   1_465  S
Co535      Cl542   2.472       .  S
Cl542     Co1436   2.429   1_455  S
C543        C903   1.425       .  S
C546        N547   1.346       .  A
C546        N551   1.359       .  A
C546        C896   1.425       .  S
N547        C548   1.346       .  A
C548        N549   1.357       .  A
C548        C904   1.423       .  S
N549        C550   1.363       .  A
C550        N551   1.362       .  A
C550        C892   1.478       .  S
C552        N553   1.354       .  A
C552        N557   1.359       .  A
C552        C902   1.437       .  S
N553        C554   1.355       .  A
C554        N555   1.362       .  A
C554        C889   1.439       .  S
N555        C556   1.365       .  A
C556        N557   1.361       .  A
C556        C885   1.486       .  S
C558        N559   1.364       .  A
C558        N563   1.362       .  A
C558        C880   1.481       .  S
N559        C560   1.361       .  A
C560        N561   1.349       .  A
C560        C900   1.435       .  S
N561        C562   1.350       .  A
C562        N563   1.358       .  A
C562        C883   1.426       .  S
C564        N565   1.364       .  A
C564        N569   1.355       .  A
C564        C898   1.443       .  S
N565        C566   1.367       .  A
C566        N567   1.361       .  A
C566        C873   1.487       .  S
N567        C568   1.359       .  A
C568        N569   1.353       .  A
C568        C877   1.439       .  S
C570        N588   1.355       .  A
C570        C934   1.430       .  S
C570        C607   1.441       .  S
N571        N588   1.328       .  A
N571        N593   1.324       .  A
N571       Co608   2.122       .  S
C572        N597   1.341       .  A
C572        C610   1.458       .  S
C572        H617   1.081       .  S
H573        C614   1.082       .  S
C574        N598   1.331       .  A
C574        C578   1.441       .  S
C574        H603   1.081       .  S
Co575       N593   2.056       .  S
Co575       N583   2.097       .  S
Co575       N615   2.094       .  S
Co575       N591   2.062       .  S
Co575      Cl619   2.470       .  S
N576        C614   1.335       .  A
N576        N583   1.317       .  A
N576       Co577   2.057       .  S
Co577       N580   2.109       .  S
Co577       N597   2.106       .  S
Co577       N584   2.063       .  S
Co577      Cl619   2.429       .  S
C578        N616   1.352       .  A
C578        C912   1.422       .  S
N579        N586   1.317       .  A
N579        N609   1.329       .  A
N579       Co612   2.089       .  S
N580        N598   1.323       .  A
N580        N616   1.326       .  A
N581        C610   1.342       .  A
N581        N591   1.321       .  A
H582        C607   1.081       .  S
N583        N604   1.329       .  A
N584        N602   1.316       .  A
N584        N589   1.321       .  A
C585        N589   1.345       .  A
C585        C878   1.438       .  S
C585        C613   1.462       .  S
N586        C601   1.337       .  A
N586       Co608   2.065       .  S
C587        N615   1.348       .  A
C587        C590   1.465       .  S
C587        H621   1.082       .  S
C590        N611   1.342       .  A
C590        C920   1.439       .  S
N591        N597   1.324       .  A
N592        C618   1.346       .  A
N592        N594   1.324       .  A
N592       Co608   2.116       .  S
N593        C607   1.333       .  A
N594        N622   1.317       .  A
N594       Co612   2.047       .  S
H595        C618   1.081       .  S
H596        C613   1.082       .  S
N598       Co612   2.049       .  S
N599        N611   1.320       .  A
N599        N615   1.317       .  A
N599       Co608   2.059       .  S
C600        N604   1.353       .  A
C600        C890   1.439       .  S
C600        C614   1.448       .  S
C601        C620   1.451       .  S
C601        H605   1.082       .  S
N602        C613   1.345       .  A
N602       Co612   2.088       .  S
C606        N622   1.337       .  A
C606        C895   1.425       .  S
C606        C618   1.464       .  S
Co608      Cl619   2.427       .  S
N609        C620   1.352       .  A
C610        C884   1.427       .  S
Co612      Cl619   2.466       .  S
C620        C926   1.441       .  S
C623        C913   1.495       .  S
C623        C624   1.414       .  A
C623        C628   1.411       .  A
C624        C870   1.485       .  S
C624        C625   1.406       .  A
C625        H630   1.084       .  S
C626        C865   1.489       .  S
C626        C627   1.414       .  A
C627        C886   1.487       .  S
C628        H629   1.084       .  S
C631        C906   1.481   1_556  S
C631        C632   1.420       .  A
C631       C1572   1.402   1_556  A
C632        C861   1.499       .  S
C632       C1569   1.414       .  A
C633       H1574   1.085       .  S
C633       C1568   1.411   1_455  A
C633        C634   1.412       .  A
C634        C858   1.498       .  S
C634        C635   1.421       .  A
C635        C891   1.482   1_556  S
C635        C636   1.403   1_556  A
C636        H637   1.085   1_455  S
C636       C1567   1.403   1_454  A
H638       C1569   1.085       .  S
C639        C930   1.491       .  S
C639        C640   1.416       .  A
C639       C1580   1.406       .  A
C640        C853   1.498       .  S
C640       C1577   1.415       .  A
C641        H646   1.085       .  S
C641       C1576   1.416   1_455  A
C641        C642   1.415       .  A
C642        C849   1.496       .  S
C642        C643   1.414       .  A
C643        C879   1.485       .  S
C643        C644   1.400       .  A
C644        H645   1.085       .  S
C644       C1575   1.403   1_455  A
C647        C922   1.491   1_556  S
C647        C648   1.414       .  A
C647        C652   1.412   1_556  A
C648        C845   1.488       .  S
C648        C649   1.404       .  A
C649        H654   1.084       .  S
C650        C841   1.490       .  S
C650        C651   1.414       .  A
C651        C874   1.493   1_556  S
C652        H653   1.083       .  S
C655        N656   1.349       .  A
C655        N660   1.354       .  A
C655        C839   1.425       .  S
N656        C657   1.351       .  A
C657        N658   1.364       .  A
C657        C838   1.434       .  S
N658        C659   1.366       .  A
C659        N660   1.357       .  A
C659        C846   1.476       .  S
C661        N662   1.358       .  A
C661        N666   1.366       .  A
C661        C836   1.447       .  S
N662        C663   1.355       .  A
C663        N664   1.357       .  A
C663        C833   1.443       .  S
N664        C665   1.361       .  A
C665        N666   1.367       .  A
C665        C862   1.487       .  S
C667        N668   1.359       .  A
C667        N672   1.366       .  A
C667        C842   1.480       .  S
N668        C669   1.356       .  A
C669        N670   1.349       .  A
C669        C832   1.424       .  S
N670        C671   1.349       .  A
C671        N672   1.362       .  A
C671        C829   1.434       .  S
C673        N674   1.355       .  A
C673        N678   1.354       .  A
C673        C827   1.438       .  S
N674        C675   1.358       .  A
C675        N676   1.368       .  A
C675        C857   1.485       .  S
N676        C677   1.368       .  A
C677        N678   1.357       .  A
C677        C825   1.447       .  S
C679        N680   1.356       .  A
C679        N684   1.355       .  A
C679        C821   1.439       .  S
N680        C681   1.359       .  A
C681        N682   1.366       .  A
C681        C850   1.483       .  S
N682        C683   1.366       .  A
C683        N684   1.357       .  A
C683        C823   1.446       .  S
C685        N686   1.351       .  A
C685        N690   1.363       .  A
C685        C818   1.432       .  S
N686        C687   1.350       .  A
C687        N688   1.357       .  A
C687        C820   1.430       .  S
N688        C689   1.360       .  A
C689        N690   1.365       .  A
C689        C866   1.481       .  S
C691        N709   1.343       .  A
C691        C826   1.447       .  S
C691        C728   1.467       .  S
N692        N709   1.323       .  A
N692        N714   1.317       .  A
N692       Co729   2.060       .  S
C693        N718   1.335       .  A
C693        C731   1.447       .  S
C693        H738   1.082       .  S
H694        C735   1.081       .  S
C695        N719   1.350       .  A
C695        C699   1.469       .  S
C695        H724   1.082       .  S
Co696       N714   2.100       .  S
Co696       N704   2.066       .  S
Co696       N736   2.065       .  S
Co696       N712   2.102       .  S
Co696      Cl740   2.479       .  S
N697        C735   1.345       .  A
N697        N704   1.326       .  A
N697       Co698   2.124       .  S
Co698       N701   2.056       .  S
Co698       N718   2.053       .  S
Co698       N705   2.125       .  S
Co698      Cl740   2.422       .  S
C699        N737   1.342       .  A
C699        C815   1.447       .  S
N700        N707   1.327       .  A
N700        N730   1.321       .  A
N700       Co733   2.063       .  S
N701        N719   1.316       .  A
N701        N737   1.322       .  A
N702        C731   1.357       .  A
N702        N712   1.331       .  A
H703        C728   1.082       .  S
N704        N725   1.322       .  A
N705        N723   1.325       .  A
N705        N710   1.328       .  A
C706        N710   1.354       .  A
C706        C817   1.433       .  S
C706        C734   1.445       .  S
N707        C722   1.345       .  A
N707       Co729   2.122       .  S
C708        N736   1.335       .  A
C708        C711   1.446       .  S
C708        H742   1.081       .  S
C711        N732   1.355       .  A
C711        C830   1.435       .  S
N712        N718   1.315       .  A
N713        C739   1.336       .  A
N713        N715   1.316       .  A
N713       Co729   2.057       .  S
N714        C728   1.349       .  A
N715        N743   1.331       .  A
N715       Co733   2.100       .  S
H716        C739   1.082       .  S
H717        C734   1.081       .  S
N719       Co733   2.102       .  S
N720        N732   1.328       .  A
N720        N736   1.325       .  A
N720       Co729   2.126       .  S
C721        N725   1.342       .  A
C721        C837   1.436       .  S
C721        C735   1.464       .  S
C722        C741   1.463       .  S
C722        H726   1.081       .  S
N723        C734   1.335       .  A
N723       Co733   2.060       .  S
C727        N743   1.355       .  A
C727        C824   1.445       .  S
C727        C739   1.448       .  S
Co729      Cl740   2.425       .  S
N730        C741   1.340       .  A
C731        C835   1.446       .  S
Co733      Cl740   2.479       .  S
C741        C813   1.431       .  S
C744        N745   1.357       .  A
C744        N749   1.367       .  A
C744        C816   1.447       .  S
N745        C746   1.354       .  A
C746        N747   1.358       .  A
C746        C811   1.442       .  S
N747        C748   1.361       .  A
C748        N749   1.368       .  A
C748        C854   1.487       .  S
C750        N751   1.356       .  A
C750        N755   1.348       .  A
C750        C810   1.424       .  S
N751        C752   1.359       .  A
C752        N753   1.364       .  A
C752        C869   1.475       .  S
N753        C754   1.361       .  A
C754        N755   1.349       .  A
C754        C814   1.429       .  S
C756        N774   1.348       .  A
C756        C840   1.425       .  S
C756        C793   1.449       .  S
N757        N774   1.324       .  A
N757        N779   1.324       .  A
N757       Co794   2.100       .  S
C758        N783   1.341       .  A
C758        C796   1.456       .  S
C758        H803   1.081       .  S
H759        C800   1.082       .  S
C760        N784   1.335       .  A
C760        C764   1.447       .  S
C760        H789   1.081       .  S
Co761      N1247   2.052   1_455  S
Co761      N1705   2.085   1_455  S
Co761       N777   2.061       .  S
Co761      Cl805   2.460       .  S
N762        C800   1.338       .  A
N762        N769   1.317       .  A
N762      Co1699   2.064       .  S
Co763      N1698   2.064   1_455  S
Co763      N1702   2.106   1_455  S
Co763       N783   2.097       .  S
Co763       N770   2.065       .  S
Co763      Cl805   2.431       .  S
C764        N802   1.351       .  A
C764        C819   1.430       .  S
N765        N772   1.316       .  A
N765        N795   1.329       .  A
N765      Co1266   2.097       .  S
N766        N784   1.324       .  A
N766        N802   1.326       .  A
N766      Co1699   2.107       .  S
N767        C796   1.341       .  A
N767        N777   1.320       .  A
N769        N790   1.329       .  A
N769      Co1697   2.097       .  S
N770        N788   1.317       .  A
N770        N775   1.320       .  A
C771        N775   1.343       .  A
C771        C822   1.437       .  S
C771        C799   1.465       .  S
N772        C787   1.336       .  A
N772       Co794   2.059       .  S
C773        N801   1.347       .  A
C773        C776   1.464       .  S
C773        H807   1.082       .  S
C776        N797   1.344       .  A
C776        C828   1.437       .  S
N777        N783   1.323       .  A
N778        C804   1.342       .  A
N778        N780   1.323       .  A
N778      Co1730   2.096       .  S
N779        C793   1.336       .  A
N779      Co1229   2.070       .  S
N780        N808   1.320       .  A
H781        C804   1.081       .  S
H782        C799   1.082       .  S
N784      Co1734   2.067       .  S
N785        N797   1.321       .  A
N785        N801   1.317       .  A
N785      Co1730   2.068       .  S
C786        N790   1.353       .  A
C786        C834   1.443       .  S
C786        C800   1.452       .  S
C787        C806   1.450       .  S
C787        H791   1.082       .  S
N788        C799   1.347       .  A
N788       Co798   2.091       .  S
C792        N808   1.341       .  A
C792        C809   1.425       .  S
C792        C804   1.457       .  S
Co794      N1714   2.101       .  S
Co794      N1721   2.057       .  S
Co794     Cl1273   2.426       .  S
N795        C806   1.354       .  A
C796        C831   1.424       .  S
Co798      N1233   2.083   1_455  S
Co798      N1720   2.058   1_455  S
Co798      Cl805   2.465       .  S
Cl805     Co1262   2.431       .  S
C806        C812   1.441       .  S
C809        C810   1.199       .  T
C811        C812   1.209       .  T
C813        C814   1.203       .  T
C815        C816   1.213       .  T
C817        C818   1.204       .  T
C819        C820   1.202       .  T
C821        C822   1.207       .  T
C823        C824   1.212       .  T
C825        C826   1.213       .  T
C827        C828   1.207       .  T
C829        C830   1.206       .  T
C831        C832   1.199       .  T
C833        C834   1.210       .  T
C835        C836   1.212       .  T
C837        C838   1.206       .  T
C839        C840   1.200       .  T
C841        C842   1.342       .  D
C841        H843   1.084       .  S
C842        H844   1.086       .  S
C845        C846   1.341       .  D
C845        H847   1.087       .  S
C846        H848   1.087       .  S
C849        C850   1.347       .  D
C849        H851   1.086       .  S
C850        H852   1.087       .  S
C853        C854   1.349       .  D
C853        H855   1.085       .  S
C854        H856   1.087       .  S
C857        C858   1.346       .  D
C857        H859   1.087       .  S
C858        H860   1.086       .  S
C861        C862   1.349       .  D
C861        H863   1.086       .  S
C862        H864   1.087       .  S
C865        C866   1.345       .  D
C865        H867   1.086       .  S
C866        H868   1.087       .  S
C869        C870   1.342       .  D
C869        H871   1.086       .  S
C870        H872   1.086       .  S
C873        C874   1.346       .  D
C873        H875   1.087   1_554  S
C874        H876   1.086       .  S
C877        C878   1.208       .  T
C879        C880   1.346       .  D
C879        H881   1.086       .  S
C880        H882   1.086       .  S
C883        C884   1.201       .  T
C885        C886   1.344       .  D
C885        H887   1.087       .  S
C886        H888   1.086       .  S
C889        C890   1.208       .  T
C891        C892   1.343       .  D
C891        H893   1.087       .  S
C892        H894   1.087       .  S
C895        C896   1.200       .  T
C897        C898   1.211       .  T
C899        C900   1.206       .  T
C901        C902   1.207       .  T
C903        C904   1.199       .  T
C905        C906   1.342       .  D
C905        H907   1.087   1_554  S
C906        H908   1.087       .  S
C909        C910   1.200       .  T
C911        C912   1.198       .  T
C913        C914   1.350       .  D
C913        H915   1.086       .  S
C914        H916   1.087       .  S
C917        C918   1.210       .  T
C919        C920   1.209       .  T
C921        C922   1.347       .  D
C921        H923   1.087   1_554  S
C922        H924   1.086       .  S
C925        C926   1.209       .  T
C927        C928   1.208       .  T
C929        C930   1.343       .  D
C929        H931   1.087       .  S
C930        H932   1.087       .  S
C933        C934   1.203       .  T
C935        C936   1.199       .  T
C937        N938   1.362       .  A
C937        N942   1.352       .  A
C937       C1401   1.434       .  S
N938        C939   1.364       .  A
C939        N940   1.359       .  A
C939       C1397   1.478       .  S
N940        C941   1.355       .  A
C941        N942   1.351       .  A
C941       C1403   1.429       .  S
C943        N944   1.359       .  A
C943        N948   1.366       .  A
C943       C1395   1.449       .  S
N944        C945   1.357       .  A
C945        N946   1.356       .  A
C945       C1393   1.442       .  S
N946        C947   1.359       .  A
C947        N948   1.367       .  A
C947       C1389   1.486       .  S
C949        N950   1.356       .  A
C949        N954   1.363       .  A
C949       C1387   1.446       .  S
N950        C951   1.356       .  A
C951        N952   1.362       .  A
C951       C1386   1.445       .  S
N952        C953   1.363       .  A
C953        N954   1.366       .  A
C953       C1382   1.493       .  S
C955        N956   1.363       .  A
C955        N960   1.350       .  A
C955       C1378   1.431       .  S
N956        C957   1.365       .  A
C957        N958   1.360       .  A
C957       C1373   1.481       .  S
N958        C959   1.357       .  A
C959        N960   1.348       .  A
C959       C1379   1.428       .  S
C961        N979   1.346       .  A
C961       C1385   1.445       .  S
C961        C998   1.464       .  S
N962        N979   1.323       .  A
N962        N984   1.317       .  A
N962       Co999   2.071       .  S
C963        N988   1.337       .  A
C963       C1001   1.451       .  S
C963       H1008   1.082       .  S
H964       C1005   1.081       .  S
C965        N989   1.352       .  A
C965        C969   1.471       .  S
Co966       N984   2.090       .  S
Co966       N974   2.066       .  S
Co966      N1474   2.059       .  S
Co966     Cl1010   2.471       .  S
N967       C1005   1.342       .  A
N967       Co968   2.102       .  S
Co968       N971   2.054       .  S
Co968      N1456   2.059       .  S
Co968      N1443   2.104       .  S
C969       N1007   1.340       .  A
C969       C1396   1.447       .  S
N970        N977   1.326       .  A
N970       N1000   1.322       .  A
N970      Co1003   2.070       .  S
N971        N989   1.317       .  A
N971       N1007   1.321       .  A
N972       C1001   1.354       .  A
N972        N982   1.329       .  A
H973        C998   1.082       .  S
N974        N995   1.321       .  A
N975        N993   1.324       .  A
N975        N980   1.327       .  A
N975      Co1436   2.118   1_545  S
C976        N980   1.353       .  A
C976       C1377   1.433       .  S
C976       C1004   1.445       .  S
N977        C992   1.340       .  A
N977       Co999   2.105       .  S
C978       N1006   1.332       .  A
C978        C981   1.445       .  S
C978       H1012   1.081       .  S
C981       N1002   1.350       .  A
C981       C1367   1.422       .  S
N982        N988   1.316       .  A
N983       C1009   1.337       .  A
N983        N985   1.317       .  A
N983      Co1467   2.065   1_545  S
N984        C998   1.347       .  A
N985       N1013   1.327       .  A
N985      Co1471   2.085   1_545  S
H986       C1009   1.082       .  S
H987       C1004   1.082       .  S
N988      Co1436   2.062   1_545  S
N990       N1002   1.325       .  A
N990       N1006   1.324       .  A
N990      Co1467   2.104   1_545  S
C991       C1404   1.429       .  S
C991       C1005   1.456       .  S
C992       C1011   1.457       .  S
C992        H996   1.081       .  S
N993       C1004   1.335       .  A
C997       N1013   1.351       .  A
C997       C1365   1.436       .  S
C997       C1009   1.451       .  S
Co999      N1451   2.057       .  S
Co999      N1458   2.108       .  S
Co999     Cl1010   2.427       .  S
N1000      C1011   1.343       .  A
C1001      C1369   1.442       .  S
Co1003     N1453   2.101       .  S
Co1003    Cl1010   2.475       .  S
N1006     Co1434   2.057   1_545  S
C1011      C1371   1.426       .  S
C1014      N1015   1.349       .  A
C1014      N1019   1.361       .  A
C1014      C1364   1.432       .  S
N1015      C1016   1.349       .  A
C1016      N1017   1.356       .  A
C1016      C1372   1.425       .  S
N1017      C1018   1.362       .  A
C1018      N1019   1.363       .  A
C1018      C1360   1.480       .  S
C1020      N1021   1.356       .  A
C1020      N1025   1.359       .  A
C1020      C1370   1.443       .  S
N1021      C1022   1.357       .  A
C1022      N1023   1.363       .  A
C1022      C1357   1.443       .  S
N1023      C1024   1.364       .  A
C1024      N1025   1.362       .  A
C1024      C1353   1.484       .  S
C1026      N1027   1.357       .  A
C1026      N1031   1.364       .  A
C1026      C1348   1.475       .  S
N1027      C1028   1.355       .  A
C1028      N1029   1.348       .  A
C1028      C1368   1.423       .  S
N1029      C1030   1.351       .  A
C1030      N1031   1.361       .  A
C1030      C1351   1.429       .  S
C1032      N1033   1.359       .  A
C1032      N1037   1.354       .  A
C1032      C1366   1.436       .  S
N1033      C1034   1.362       .  A
C1034      N1035   1.365       .  A
C1034      C1341   1.485       .  S
N1035      C1036   1.363       .  A
C1036      N1037   1.354       .  A
C1036      C1345   1.444       .  S
C1038      N1056   1.352       .  A
C1038      C1402   1.435       .  S
C1038      C1075   1.449       .  S
N1039      N1056   1.327       .  A
N1039      N1061   1.325       .  A
N1039     Co1076   2.114       .  S
C1040      N1065   1.342       .  A
C1040      C1078   1.459       .  S
C1040      H1085   1.081       .  S
H1041      C1082   1.082       .  S
C1042      N1066   1.333       .  A
C1042      C1046   1.444       .  S
C1042      H1071   1.081       .  S
Co1043     N1061   2.073       .  S
Co1043     N1051   2.101       .  S
Co1043     N1083   2.102       .  S
Co1043     N1059   2.073       .  S
Co1043    Cl1087   2.475       .  S
N1044      C1082   1.335       .  A
N1044      N1051   1.316       .  A
N1044     Co1045   2.055       .  S
Co1045     N1048   2.112       .  S
Co1045     N1065   2.111       .  S
Co1045     N1052   2.067       .  S
Co1045    Cl1087   2.427       .  S
C1046      N1084   1.352       .  A
C1046      C1380   1.427       .  S
N1047      N1054   1.315       .  A
N1047      N1077   1.329       .  A
N1047     Co1080   2.092       .  S
N1048      N1066   1.324       .  A
N1048      N1084   1.327       .  A
N1049      C1078   1.343       .  A
N1049      N1059   1.323       .  A
H1050      C1075   1.081       .  S
N1051      N1072   1.331       .  A
N1052      N1070   1.317       .  A
N1052      N1057   1.322       .  A
C1053      N1057   1.345       .  A
C1053      C1346   1.444       .  S
C1053      C1081   1.464       .  S
N1054      C1069   1.337       .  A
N1054     Co1076   2.061       .  S
C1055      N1083   1.350       .  A
C1055      C1058   1.468       .  S
C1055      H1089   1.082       .  S
C1058      N1079   1.342       .  A
C1058      C1388   1.445       .  S
N1059      N1065   1.326       .  A
N1060      C1086   1.345       .  A
N1060      N1062   1.325       .  A
N1060     Co1076   2.115       .  S
N1061      C1075   1.338       .  A
N1062      N1090   1.320       .  A
N1062     Co1080   2.065       .  S
H1063      C1086   1.081       .  S
H1064      C1081   1.082       .  S
N1066     Co1080   2.058       .  S
N1067      N1079   1.321       .  A
N1067      N1083   1.317       .  A
N1067     Co1076   2.061       .  S
C1068      N1072   1.355       .  A
C1068      C1358   1.442       .  S
C1068      C1082   1.446       .  S
C1069      C1088   1.451       .  S
C1069      H1073   1.082       .  S
N1070      C1081   1.347       .  A
N1070     Co1080   2.091       .  S
C1074      N1090   1.341       .  A
C1074      C1363   1.432       .  S
C1074      C1086   1.462       .  S
Co1076    Cl1087   2.428       .  S
N1077      C1088   1.353       .  A
C1078      C1352   1.431       .  S
Co1080    Cl1087   2.471       .  S
C1088      C1394   1.441       .  S
C1091      C1381   1.492       .  S
C1091      C1092   1.411       .  A
C1091      C1096   1.412       .  A
C1092      C1338   1.478       .  S
C1092      C1093   1.398       .  A
C1093      H1098   1.085       .  S
C1093      C1562   1.399       .  A
C1094      C1333   1.489       .  S
C1094      C1561   1.405   1_545  A
C1094      C1095   1.415       .  A
C1095      C1354   1.493       .  S
C1095      C1564   1.413   1_545  A
C1096      H1097   1.084       .  S
C1096      C1563   1.416       .  A
C1099      C1374   1.488   1_556  S
C1099      C1100   1.423       .  A
C1100      C1329   1.499       .  S
C1101      C1102   1.412       .  A
C1102      C1326   1.495       .  S
C1102      C1103   1.416       .  A
C1103      C1359   1.485   1_556  S
C1103      C1104   1.404   1_556  A
C1104      H1105   1.085       .  S
C1107      C1398   1.487       .  S
C1107      C1108   1.415       .  A
C1108      C1321   1.494       .  S
C1109      H1114   1.084       .  S
C1109      C1110   1.414       .  A
C1110      C1317   1.498       .  S
C1110      C1111   1.421       .  A
C1111      C1347   1.483       .  S
C1111      C1112   1.401       .  A
C1112      H1113   1.085       .  S
C1115      C1390   1.498   1_556  S
C1115      C1116   1.424       .  A
C1115      C1120   1.415   1_556  A
C1116      C1313   1.491       .  S
C1116      C1117   1.404       .  A
C1117      H1122   1.085       .  S
C1117      C1586   1.405       .  A
C1118      C1309   1.486       .  S
C1118      C1585   1.405   1_545  A
C1118      C1119   1.415       .  A
C1119      C1342   1.493   1_556  S
C1119      C1588   1.411   1_546  A
C1120      H1121   1.085       .  S
C1120      C1587   1.412   1_554  A
C1123      N1124   1.345       .  A
C1123      N1128   1.353       .  A
C1123      C1307   1.418       .  S
N1124      C1125   1.348       .  A
C1125      N1126   1.366       .  A
C1125      C1306   1.432       .  S
N1126      C1127   1.369       .  A
C1127      N1128   1.357       .  A
C1127      C1314   1.479       .  S
C1129      N1130   1.354       .  A
C1129      N1134   1.366       .  A
C1129      C1304   1.441       .  S
N1130      C1131   1.351       .  A
C1131      N1132   1.356       .  A
C1131      C1301   1.434       .  S
N1132      C1133   1.360       .  A
C1133      N1134   1.368       .  A
C1133      C1330   1.487       .  S
C1135      N1136   1.365       .  A
C1135      N1140   1.358       .  A
C1135      C1310   1.476       .  S
N1136      C1137   1.361       .  A
C1137      N1138   1.350       .  A
C1137      C1300   1.431       .  S
N1138      C1139   1.349       .  A
C1139      N1140   1.355       .  A
C1139      C1297   1.425       .  S
C1141      N1142   1.364       .  A
C1141      N1146   1.356       .  A
C1141      C1295   1.444       .  S
N1142      C1143   1.365       .  A
C1143      N1144   1.362       .  A
C1143      C1325   1.485       .  S
N1144      C1145   1.359       .  A
C1145      N1146   1.355       .  A
C1145      C1293   1.442       .  S
C1147      N1148   1.364       .  A
C1147      N1152   1.356       .  A
C1147      C1289   1.443       .  S
N1148      C1149   1.365       .  A
C1149      N1150   1.363       .  A
C1149      C1318   1.487       .  S
N1150      C1151   1.359       .  A
C1151      N1152   1.355       .  A
C1151      C1291   1.442       .  S
C1153      N1154   1.349       .  A
C1153      N1158   1.362       .  A
C1153      C1286   1.431       .  S
N1154      C1155   1.348       .  A
C1155      N1156   1.357       .  A
C1155      C1288   1.426       .  S
N1156      C1157   1.360       .  A
C1157      N1158   1.365       .  A
C1157      C1334   1.479       .  S
C1159      N1177   1.345       .  A
C1159      C1294   1.441       .  S
C1159      C1196   1.463       .  S
N1160      N1177   1.322       .  A
N1160      N1182   1.316       .  A
N1160     Co1197   2.066       .  S
C1161      N1186   1.336       .  A
C1161      C1199   1.450       .  S
C1161      H1206   1.082       .  S
H1162      C1203   1.081       .  S
C1163      N1187   1.347       .  A
C1163      C1167   1.464       .  S
C1163      H1192   1.082       .  S
Co1164     N1182   2.088       .  S
Co1164     N1172   2.056       .  S
Co1164     N1204   2.063       .  S
Co1164     N1180   2.091       .  S
Co1164    Cl1208   2.470       .  S
N1165      C1203   1.348       .  A
N1165      N1172   1.325       .  A
N1165     Co1166   2.129       .  S
Co1166     N1169   2.061       .  S
Co1166     N1186   2.060       .  S
Co1166     N1173   2.126       .  S
Co1166    Cl1208   2.427       .  S
C1167      N1205   1.343       .  A
C1167      C1283   1.442       .  S
N1168      N1175   1.325       .  A
N1168      N1198   1.320       .  A
N1168     Co1201   2.062       .  S
N1169      N1187   1.317       .  A
N1169      N1205   1.322       .  A
N1170      C1199   1.353       .  A
N1170      N1180   1.329       .  A
H1171      C1196   1.082       .  S
N1172      N1193   1.320       .  A
N1173      N1191   1.325       .  A
N1173      N1178   1.328       .  A
C1174      N1178   1.355       .  A
C1174      C1285   1.433       .  S
C1174      C1202   1.444       .  S
N1175      C1190   1.341       .  A
N1175     Co1197   2.104       .  S
C1176      N1204   1.334       .  A
C1176      C1179   1.446       .  S
C1176      H1210   1.081       .  S
C1179      N1200   1.350       .  A
C1179      C1298   1.425       .  S
N1180      N1186   1.316       .  A
N1181      C1207   1.336       .  A
N1181      N1183   1.316       .  A
N1181     Co1197   2.060       .  S
N1182      C1196   1.346       .  A
N1183      N1211   1.330       .  A
N1183     Co1201   2.095       .  S
H1184      C1207   1.082       .  S
H1185      C1202   1.082       .  S
N1187     Co1201   2.092       .  S
N1188      N1200   1.325       .  A
N1188      N1204   1.324       .  A
N1188     Co1197   2.105       .  S
C1189      N1193   1.338       .  A
C1189      C1305   1.435       .  S
C1189      C1203   1.468       .  S
C1190      C1209   1.458       .  S
C1190      H1194   1.081       .  S
N1191      C1202   1.334       .  A
N1191     Co1201   2.059       .  S
C1195      N1211   1.354       .  A
C1195      C1292   1.442       .  S
C1195      C1207   1.450       .  S
Co1197    Cl1208   2.430       .  S
N1198      C1209   1.340       .  A
C1199      C1303   1.442       .  S
Co1201    Cl1208   2.470       .  S
C1209      C1281   1.424       .  S
C1212      N1213   1.354       .  A
C1212      N1217   1.365       .  A
C1212      C1284   1.441       .  S
N1213      C1214   1.352       .  A
C1214      N1215   1.356       .  A
C1214      C1279   1.434       .  S
N1215      C1216   1.360       .  A
C1216      N1217   1.367       .  A
C1216      C1322   1.481       .  S
C1218      N1219   1.358       .  A
C1218      N1223   1.348       .  A
C1218      C1278   1.426       .  S
N1219      C1220   1.361       .  A
C1220      N1221   1.361       .  A
C1220      C1337   1.473       .  S
N1221      C1222   1.356       .  A
C1222      N1223   1.348       .  A
C1222      C1282   1.422       .  S
C1224      N1242   1.349       .  A
C1224      C1308   1.418       .  S
C1224      C1261   1.442       .  S
N1225      N1242   1.324       .  A
N1225      N1247   1.322       .  A
N1225     Co1262   2.095   1_655  S
C1226      N1251   1.344       .  A
C1226      C1264   1.463       .  S
C1226      H1271   1.081       .  S
H1227      C1268   1.082       .  S
C1228      N1252   1.334       .  A
C1228      C1232   1.444       .  S
C1228      H1257   1.082       .  S
Co1229     N1737   2.093       .  S
Co1229     N1245   2.065   1_565  S
Co1229    Cl1273   2.475       .  S
N1230      C1268   1.336       .  A
N1230      N1237   1.317       .  A
Co1231     N1251   2.115       .  S
Co1231     N1238   2.064       .  S
Co1231    Cl1273   2.423   1_545  S
C1232      N1270   1.351       .  A
C1232      C1287   1.426       .  S
N1233      N1240   1.317       .  A
N1233      N1263   1.326       .  A
N1234      N1252   1.322       .  A
N1234      N1270   1.326       .  A
N1235      C1264   1.341       .  A
N1235      N1245   1.322       .  A
H1236      C1729   1.082       .  S
N1237      N1258   1.326       .  A
N1238      N1256   1.317       .  A
N1238      N1243   1.322       .  A
C1239      N1243   1.344       .  A
C1239      C1290   1.443       .  S
C1239      C1267   1.464       .  S
N1240      C1255   1.336       .  A
N1240     Co1262   2.066   1_655  S
C1241      N1269   1.348       .  A
C1241      C1244   1.465       .  S
C1241      H1275   1.082       .  S
C1244      N1265   1.344       .  A
C1244      C1296   1.444       .  S
N1245      N1251   1.325       .  A
N1246      C1272   1.343       .  A
N1246      N1248   1.324       .  A
N1247      C1261   1.332       .  A
N1248      N1276   1.320       .  A
N1248     Co1734   2.063       .  S
H1249      C1272   1.081       .  S
H1250      C1267   1.082       .  S
N1253      N1265   1.323       .  A
N1253      N1269   1.318       .  A
C1254      N1258   1.350       .  A
C1254      C1302   1.434       .  S
C1254      C1268   1.452       .  S
C1255      C1274   1.452       .  S
C1255      H1259   1.082       .  S
N1256      C1267   1.347       .  A
N1256     Co1266   2.092   1_545  S
C1260      N1276   1.340       .  A
C1260      C1277   1.427       .  S
C1260      C1272   1.460       .  S
C1261      H1704   1.081       .  S
N1263      C1274   1.350       .  A
C1264      C1299   1.433       .  S
Co1266     N1716   2.066       .  S
Co1266    Cl1273   2.473       .  S
N1269     Co1697   2.096       .  S
C1274      C1280   1.433       .  S
C1277      C1278   1.201       .  T
C1279      C1280   1.204       .  T
C1281      C1282   1.198       .  T
C1283      C1284   1.210       .  T
C1285      C1286   1.204       .  T
C1287      C1288   1.200       .  T
C1289      C1290   1.210       .  T
C1291      C1292   1.210       .  T
C1293      C1294   1.209       .  T
C1295      C1296   1.211       .  T
C1297      C1298   1.200       .  T
C1299      C1300   1.204       .  T
C1301      C1302   1.205       .  T
C1303      C1304   1.210       .  T
C1305      C1306   1.206       .  T
C1307      C1308   1.196       .  T
C1309      C1310   1.340       .  D
C1309      H1311   1.087       .  S
C1310      H1312   1.087       .  S
C1313      C1314   1.341       .  D
C1313      H1315   1.087       .  S
C1314      H1316   1.087       .  S
C1317      C1318   1.350       .  D
C1317      H1319   1.086       .  S
C1318      H1320   1.087       .  S
C1321      C1322   1.347       .  D
C1321      H1323   1.086       .  S
C1322      H1324   1.088       .  S
C1325      C1326   1.349       .  D
C1325      H1327   1.087       .  S
C1326      H1328   1.086       .  S
C1329      C1330   1.348       .  D
C1329      H1331   1.087       .  S
C1330      H1332   1.087       .  S
C1333      C1334   1.343       .  D
C1333      H1335   1.086       .  S
C1334      H1336   1.087       .  S
C1337      C1338   1.343       .  D
C1337      H1339   1.087       .  S
C1338      H1340   1.086       .  S
C1341      C1342   1.351       .  D
C1341      H1343   1.087   1_554  S
C1342      H1344   1.086       .  S
C1345      C1346   1.211       .  T
C1347      C1348   1.341       .  D
C1347      H1349   1.086       .  S
C1348      H1350   1.087       .  S
C1351      C1352   1.203       .  T
C1353      C1354   1.349       .  D
C1353      H1355   1.087       .  S
C1354      H1356   1.086       .  S
C1357      C1358   1.210       .  T
C1359      C1360   1.346       .  D
C1359      H1361   1.086   1_554  S
C1360      H1362   1.086       .  S
C1363      C1364   1.204       .  T
C1365      C1366   1.206       .  T
C1367      C1368   1.198       .  T
C1369      C1370   1.210       .  T
C1371      C1372   1.200       .  T
C1373      C1374   1.344       .  D
C1373      H1375   1.087       .  S
C1374      H1376   1.087       .  S
C1377      C1378   1.204       .  T
C1379      C1380   1.201       .  T
C1381      C1382   1.347       .  D
C1381      H1383   1.086       .  S
C1382      H1384   1.086       .  S
C1385      C1386   1.211       .  T
C1387      C1388   1.212       .  T
C1389      C1390   1.347       .  D
C1389      H1391   1.087   1_554  S
C1390      H1392   1.086       .  S
C1393      C1394   1.209       .  T
C1395      C1396   1.214       .  T
C1397      C1398   1.342       .  D
C1397      H1399   1.087       .  S
C1398      H1400   1.087       .  S
C1401      C1402   1.205       .  T
C1403      C1404   1.202       .  T
C1405      N1406   1.356       .  A
C1405      N1410   1.349       .  A
C1405      C1869   1.424       .  S
N1406      C1407   1.358       .  A
C1407      N1408   1.366       .  A
C1407      C1865   1.479       .  S
N1408      C1409   1.361       .  A
C1409      N1410   1.350       .  A
C1409      C1871   1.433       .  S
C1411      N1412   1.354       .  A
C1411      N1416   1.359       .  A
C1411      C1863   1.440       .  S
N1412      C1413   1.356       .  A
C1413      N1414   1.362       .  A
C1413      C1861   1.439       .  S
N1414      C1415   1.364       .  A
C1415      N1416   1.361       .  A
C1415      C1857   1.483       .  S
C1417      N1418   1.354       .  A
C1417      N1422   1.364       .  A
C1417      C1855   1.442       .  S
N1418      C1419   1.353       .  A
C1419      N1420   1.361       .  A
C1419      C1854   1.442       .  S
N1420      C1421   1.364       .  A
C1421      N1422   1.366       .  A
C1421      C1850   1.488       .  S
C1423      N1424   1.357       .  A
C1423      N1428   1.352       .  A
C1423      C1846   1.432       .  S
N1424      C1425   1.362       .  A
C1425      N1426   1.360       .  A
C1425      C1841   1.478       .  S
N1426      C1427   1.359       .  A
C1427      N1428   1.352       .  A
C1427      C1847   1.431       .  S
C1429      N1447   1.346       .  A
C1429      C1853   1.442       .  S
C1429      C1466   1.462       .  S
N1430      N1447   1.323       .  A
N1430      N1452   1.318       .  A
N1430     Co1467   2.071       .  S
C1431      N1456   1.337       .  A
C1431      C1469   1.452       .  S
C1431      H1476   1.082       .  S
H1432      C1473   1.081       .  S
C1433      N1457   1.347       .  A
C1433      C1437   1.464       .  S
Co1434     N1452   2.089       .  S
Co1434     N1442   2.060       .  S
Co1434    Cl1478   2.465       .  S
N1435      C1473   1.346       .  A
N1435     Co1436   2.117       .  S
Co1436     N1439   2.063       .  S
C1437      N1475   1.344       .  A
C1437      C1864   1.438       .  S
N1438      N1445   1.324       .  A
N1438      N1468   1.321       .  A
N1438     Co1471   2.064       .  S
N1439      N1457   1.316       .  A
N1439      N1475   1.321       .  A
N1440      C1469   1.352       .  A
N1440      N1450   1.328       .  A
H1441      C1466   1.082       .  S
N1442      N1463   1.319       .  A
N1443      N1461   1.325       .  A
N1443      N1448   1.324       .  A
C1444      N1448   1.349       .  A
C1444      C1845   1.432       .  S
C1444      C1472   1.453       .  S
N1445      C1460   1.342       .  A
N1445     Co1467   2.107       .  S
C1446      N1474   1.333       .  A
C1446      C1449   1.443       .  S
C1446      H1480   1.082       .  S
C1449      N1470   1.351       .  A
C1449      C1835   1.427       .  S
N1450      N1456   1.315       .  A
N1451      C1477   1.335       .  A
N1451      N1453   1.317       .  A
N1452      C1466   1.346       .  A
N1453      N1481   1.330       .  A
H1454      C1477   1.082       .  S
H1455      C1472   1.081       .  S
N1458      N1470   1.327       .  A
N1458      N1474   1.323       .  A
C1459      C1872   1.435       .  S
C1459      C1473   1.463       .  S
C1460      C1479   1.461       .  S
C1460      H1464   1.081       .  S
N1461      C1472   1.340       .  A
C1465      N1481   1.355       .  A
C1465      C1833   1.442       .  S
C1465      C1477   1.448       .  S
Co1467    Cl1478   2.431       .  S
N1468      C1479   1.341       .  A
C1469      C1837   1.439       .  S
Co1471    Cl1478   2.467       .  S
C1479      C1839   1.429       .  S
C1482      N1483   1.347       .  A
C1482      N1487   1.357       .  A
C1482      C1832   1.424       .  S
N1483      C1484   1.348       .  A
C1484      N1485   1.359       .  A
C1484      C1840   1.427       .  S
N1485      C1486   1.364       .  A
C1486      N1487   1.360       .  A
C1486      C1828   1.478       .  S
C1488      N1489   1.355       .  A
C1488      N1493   1.358       .  A
C1488      C1838   1.440       .  S
N1489      C1490   1.356       .  A
C1490      N1491   1.363       .  A
C1490      C1825   1.440       .  S
N1491      C1492   1.364       .  A
C1492      N1493   1.360       .  A
C1492      C1821   1.481       .  S
C1494      N1495   1.360       .  A
C1494      N1499   1.364       .  A
C1494      C1816   1.478       .  S
N1495      C1496   1.357       .  A
C1496      N1497   1.347       .  A
C1496      C1836   1.426       .  S
N1497      C1498   1.349       .  A
C1498      N1499   1.361       .  A
C1498      C1819   1.427       .  S
C1500      N1501   1.359       .  A
C1500      N1505   1.354       .  A
C1500      C1834   1.443       .  S
N1501      C1502   1.363       .  A
C1502      N1503   1.366       .  A
C1502      C1809   1.487       .  S
N1503      C1504   1.365       .  A
C1504      N1505   1.356       .  A
C1504      C1813   1.443       .  S
C1506      N1524   1.350       .  A
C1506      C1870   1.424       .  S
C1506      C1543   1.445       .  S
N1507      N1524   1.325       .  A
N1507      N1529   1.324       .  A
N1507     Co1544   2.105       .  S
C1508      N1533   1.343       .  A
C1508      C1546   1.463       .  S
C1508      H1553   1.081       .  S
H1509      C1550   1.082       .  S
C1510      N1534   1.335       .  A
C1510      C1514   1.447       .  S
C1510      H1539   1.082       .  S
Co1511     N1529   2.061       .  S
Co1511     N1519   2.096       .  S
Co1511     N1551   2.095       .  S
Co1511     N1527   2.062       .  S
Co1511    Cl1555   2.472       .  S
N1512      C1550   1.333       .  A
N1512      N1519   1.316       .  A
N1512     Co1513   2.052       .  S
Co1513     N1516   2.110       .  S
Co1513     N1533   2.115       .  S
Co1513     N1520   2.067       .  S
Co1513    Cl1555   2.427       .  S
C1514      N1552   1.351       .  A
C1514      C1848   1.430       .  S
N1515      N1522   1.316       .  A
N1515      N1545   1.328       .  A
N1515     Co1548   2.091       .  S
N1516      N1534   1.324       .  A
N1516      N1552   1.327       .  A
N1517      C1546   1.340       .  A
N1517      N1527   1.321       .  A
H1518      C1543   1.081       .  S
N1519      N1540   1.330       .  A
N1520      N1538   1.317       .  A
N1520      N1525   1.323       .  A
C1521      N1525   1.345       .  A
C1521      C1814   1.444       .  S
C1521      C1549   1.463       .  S
N1522      C1537   1.336       .  A
N1522     Co1544   2.056       .  S
C1523      N1551   1.347       .  A
C1523      C1526   1.465       .  S
C1523      H1557   1.082       .  S
C1526      N1547   1.343       .  A
C1526      C1856   1.442       .  S
N1527      N1533   1.325       .  A
N1528      C1554   1.343       .  A
N1528      N1530   1.325       .  A
N1528     Co1544   2.106       .  S
N1529      C1543   1.334       .  A
N1530      N1558   1.320       .  A
N1530     Co1548   2.063       .  S
H1531      C1554   1.081       .  S
H1532      C1549   1.082       .  S
N1534     Co1548   2.063       .  S
N1535      N1547   1.321       .  A
N1535      N1551   1.317       .  A
N1535     Co1544   2.061       .  S
C1536      N1540   1.355       .  A
C1536      C1826   1.438       .  S
C1536      C1550   1.445       .  S
C1537      C1556   1.449       .  S
C1537      H1541   1.082       .  S
N1538      C1549   1.346       .  A
N1538     Co1548   2.091       .  S
C1542      N1558   1.340       .  A
C1542      C1831   1.425       .  S
C1542      C1554   1.459       .  S
Co1544    Cl1555   2.428       .  S
N1545      C1556   1.353       .  A
C1546      C1820   1.429       .  S
Co1548    Cl1555   2.468       .  S
C1556      C1862   1.438       .  S
C1559      C1849   1.499       .  S
C1559      C1560   1.415       .  A
C1559      C1564   1.413       .  A
C1560      C1806   1.483       .  S
C1560      C1561   1.406       .  A
C1561      H1566   1.084       .  S
C1562      C1801   1.485       .  S
C1562      C1563   1.419       .  A
C1563      C1822   1.492       .  S
C1564      H1565   1.084       .  S
C1567      C1842   1.485   1_556  S
C1567      C1568   1.412       .  A
C1568      C1797   1.491       .  S
C1569      C1570   1.413       .  A
C1570      C1794   1.495       .  S
C1570      C1571   1.413       .  A
C1571      C1827   1.487   1_556  S
C1571      C1572   1.401   1_556  A
C1572      H1573   1.085       .  S
C1575      C1866   1.484       .  S
C1575      C1576   1.422       .  A
C1576      C1789   1.502       .  S
C1577      H1582   1.083       .  S
C1577      C1578   1.415       .  A
C1578      C1785   1.503       .  S
C1578      C1579   1.418       .  A
C1579      C1815   1.489       .  S
C1579      C1580   1.406       .  A
C1580      H1581   1.083       .  S
C1583      C1858   1.495   1_556  S
C1583      C1584   1.415       .  A
C1583      C1588   1.410   1_556  A
C1584      C1781   1.481       .  S
C1584      C1585   1.404       .  A
C1585      H1590   1.085       .  S
C1586      C1777   1.488       .  S
C1586      C1587   1.414       .  A
C1587      C1810   1.501   1_556  S
C1588      H1589   1.084       .  S
C1591      N1592   1.348       .  A
C1591      N1596   1.358       .  A
C1591      C1775   1.424       .  S
N1592      C1593   1.348       .  A
C1593      N1594   1.358       .  A
C1593      C1774   1.426       .  S
N1594      C1595   1.363       .  A
C1595      N1596   1.360       .  A
C1595      C1782   1.477       .  S
C1597      N1598   1.354       .  A
C1597      N1602   1.366       .  A
C1597      C1772   1.444       .  S
N1598      C1599   1.352       .  A
C1599      N1600   1.356       .  A
C1599      C1769   1.434       .  S
N1600      C1601   1.359       .  A
C1601      N1602   1.368       .  A
C1601      C1798   1.485       .  S
C1603      N1604   1.358       .  A
C1603      N1608   1.365       .  A
C1603      C1778   1.478       .  S
N1604      C1605   1.356       .  A
C1605      N1606   1.351       .  A
C1605      C1768   1.426       .  S
N1606      C1607   1.351       .  A
C1607      N1608   1.360       .  A
C1607      C1765   1.433       .  S
C1609      N1610   1.361       .  A
C1609      N1614   1.356       .  A
C1609      C1763   1.437       .  S
N1610      C1611   1.362       .  A
C1611      N1612   1.364       .  A
C1611      C1793   1.484       .  S
N1612      C1613   1.361       .  A
C1613      N1614   1.355       .  A
C1613      C1761   1.444       .  S
C1615      N1616   1.355       .  A
C1615      N1620   1.356       .  A
C1615      C1757   1.442       .  S
N1616      C1617   1.359       .  A
C1617      N1618   1.368       .  A
C1617      C1786   1.488       .  S
N1618      C1619   1.369       .  A
C1619      N1620   1.359       .  A
C1619      C1759   1.450       .  S
C1621      N1622   1.348       .  A
C1621      N1626   1.358       .  A
C1621      C1754   1.425       .  S
N1622      C1623   1.348       .  A
C1623      N1624   1.360       .  A
C1623      C1756   1.426       .  S
N1624      C1625   1.363       .  A
C1625      N1626   1.360       .  A
C1625      C1802   1.479       .  S
C1627      N1645   1.342       .  A
C1627      C1762   1.442       .  S
C1627      C1664   1.467       .  S
N1628      N1645   1.321       .  A
N1628      N1650   1.316       .  A
N1628     Co1665   2.058       .  S
C1629      N1654   1.334       .  A
C1629      C1667   1.446       .  S
C1629      H1674   1.082       .  S
H1630      C1671   1.081       .  S
C1631      N1655   1.350       .  A
C1631      C1635   1.469       .  S
C1631      H1660   1.082       .  S
Co1632     N1650   2.097       .  S
Co1632     N1640   2.062       .  S
Co1632     N1672   2.069       .  S
Co1632     N1648   2.099       .  S
Co1632    Cl1676   2.480       .  S
N1633      C1671   1.343       .  A
N1633      N1640   1.325       .  A
N1633     Co1634   2.112       .  S
Co1634     N1637   2.059       .  S
Co1634     N1654   2.054       .  S
Co1634     N1641   2.113       .  S
Co1634    Cl1676   2.421       .  S
C1635      N1673   1.343       .  A
C1635      C1751   1.450       .  S
N1636      N1643   1.326       .  A
N1636      N1666   1.321       .  A
N1636     Co1669   2.065       .  S
N1637      N1655   1.317       .  A
N1637      N1673   1.322       .  A
N1638      C1667   1.356       .  A
N1638      N1648   1.331       .  A
H1639      C1664   1.082       .  S
N1640      N1661   1.320       .  A
N1641      N1659   1.325       .  A
N1641      N1646   1.326       .  A
C1642      N1646   1.352       .  A
C1642      C1753   1.425       .  S
C1642      C1670   1.443       .  S
N1643      C1658   1.343       .  A
N1643     Co1665   2.115       .  S
C1644      N1672   1.337       .  A
C1644      C1647   1.448       .  S
C1644      H1678   1.081       .  S
C1647      N1668   1.353       .  A
C1647      C1766   1.434       .  S
N1648      N1654   1.316       .  A
N1649      C1675   1.338       .  A
N1649      N1651   1.317       .  A
N1649     Co1665   2.060       .  S
N1650      C1664   1.349       .  A
N1651      N1679   1.331       .  A
N1651     Co1669   2.105       .  S
H1652      C1675   1.082       .  S
H1653      C1670   1.081       .  S
N1655     Co1669   2.104       .  S
N1656      N1668   1.327       .  A
N1656      N1672   1.325       .  A
N1656     Co1665   2.120       .  S
C1657      N1661   1.340       .  A
C1657      C1773   1.427       .  S
C1657      C1671   1.460       .  S
C1658      C1677   1.461       .  S
C1658      H1662   1.081       .  S
N1659      C1670   1.332       .  A
N1659     Co1669   2.057       .  S
C1663      N1679   1.356       .  A
C1663      C1760   1.450       .  S
C1663      C1675   1.450       .  S
Co1665    Cl1676   2.425       .  S
N1666      C1677   1.342       .  A
C1667      C1771   1.444       .  S
Co1669    Cl1676   2.476       .  S
C1677      C1749   1.430       .  S
C1680      N1681   1.356       .  A
C1680      N1685   1.370       .  A
C1680      C1752   1.449       .  S
N1681      C1682   1.352       .  A
C1682      N1683   1.355       .  A
C1682      C1747   1.435       .  S
N1683      C1684   1.359       .  A
C1684      N1685   1.371       .  A
C1684      C1790   1.488       .  S
C1686      N1687   1.356       .  A
C1686      N1691   1.349       .  A
C1686      C1746   1.425       .  S
N1687      C1688   1.359       .  A
C1688      N1689   1.364       .  A
C1688      C1805   1.475       .  S
N1689      C1690   1.360       .  A
C1690      N1691   1.350       .  A
C1690      C1750   1.429       .  S
C1692      N1710   1.351       .  A
C1692      C1776   1.425       .  S
C1692      C1729   1.444       .  S
N1693      N1710   1.325       .  A
N1693      N1715   1.322       .  A
N1693     Co1730   2.101   1_655  S
C1694      N1719   1.341       .  A
C1694      C1732   1.455       .  S
C1694      H1739   1.081       .  S
H1695      C1736   1.082       .  S
C1696      N1720   1.334       .  A
C1696      C1700   1.444       .  S
C1696      H1725   1.082       .  S
Co1697     N1713   2.069       .  S
Co1697    Cl1741   2.468       .  S
N1698      C1736   1.337       .  A
N1698      N1705   1.317       .  A
Co1699     N1719   2.099       .  S
Co1699     N1706   2.060       .  S
Co1699    Cl1741   2.431       .  S
C1700      N1738   1.353       .  A
C1700      C1755   1.428       .  S
N1701      N1708   1.317       .  A
N1701      N1731   1.326       .  A
N1702      N1720   1.322       .  A
N1702      N1738   1.326       .  A
N1703      C1732   1.343       .  A
N1703      N1713   1.322       .  A
N1705      N1726   1.326       .  A
N1706      N1724   1.317       .  A
N1706      N1711   1.320       .  A
C1707      N1711   1.342       .  A
C1707      C1758   1.440       .  S
C1707      C1735   1.467       .  S
N1708      C1723   1.338       .  A
N1708     Co1730   2.068   1_655  S
C1709      N1737   1.346       .  A
C1709      C1712   1.463       .  S
C1709      H1743   1.082       .  S
C1712      N1733   1.342       .  A
C1712      C1764   1.436       .  S
N1713      N1719   1.324       .  A
N1714      C1740   1.341       .  A
N1714      N1716   1.324       .  A
N1715      C1729   1.333       .  A
N1716      N1744   1.321       .  A
H1717      C1740   1.081       .  S
H1718      C1735   1.082       .  S
N1721      N1733   1.320       .  A
N1721      N1737   1.317       .  A
C1722      N1726   1.350       .  A
C1722      C1770   1.434       .  S
C1722      C1736   1.453       .  S
C1723      C1742   1.453       .  S
C1723      H1727   1.082       .  S
N1724      C1735   1.349       .  A
N1724     Co1734   2.099       .  S
C1728      N1744   1.343       .  A
C1728      C1745   1.426       .  S
C1728      C1740   1.457       .  S
N1731      C1742   1.350       .  A
C1732      C1767   1.427       .  S
Co1734    Cl1741   2.472       .  S
C1742      C1748   1.435       .  S
C1745      C1746   1.200       .  T
C1747      C1748   1.205       .  T
C1749      C1750   1.203       .  T
C1751      C1752   1.215       .  T
C1753      C1754   1.200       .  T
C1755      C1756   1.201       .  T
C1757      C1758   1.209       .  T
C1759      C1760   1.215       .  T
C1761      C1762   1.210       .  T
C1763      C1764   1.207       .  T
C1765      C1766   1.205       .  T
C1767      C1768   1.200       .  T
C1769      C1770   1.205       .  T
C1771      C1772   1.211       .  T
C1773      C1774   1.201       .  T
C1775      C1776   1.199       .  T
C1777      C1778   1.341       .  D
C1777      H1779   1.087       .  S
C1778      H1780   1.086       .  S
C1781      C1782   1.341       .  D
C1781      H1783   1.086       .  S
C1782      H1784   1.087       .  S
C1785      C1786   1.350       .  D
C1785      H1787   1.086       .  S
C1786      H1788   1.087       .  S
C1789      C1790   1.348       .  D
C1789      H1791   1.086       .  S
C1790      H1792   1.087       .  S
C1793      C1794   1.352       .  D
C1793      H1795   1.087       .  S
C1794      H1796   1.086       .  S
C1797      C1798   1.343       .  D
C1797      H1799   1.086       .  S
C1798      H1800   1.087       .  S
C1801      C1802   1.343       .  D
C1801      H1803   1.086       .  S
C1802      H1804   1.087       .  S
C1805      C1806   1.341       .  D
C1805      H1807   1.086       .  S
C1806      H1808   1.086       .  S
C1809      C1810   1.353       .  D
C1809      H1811   1.087   1_554  S
C1810      H1812   1.086       .  S
C1813      C1814   1.211       .  T
C1815      C1816   1.344       .  D
C1815      H1817   1.087       .  S
C1816      H1818   1.087       .  S
C1819      C1820   1.202       .  T
C1821      C1822   1.348       .  D
C1821      H1823   1.087       .  S
C1822      H1824   1.086       .  S
C1825      C1826   1.208       .  T
C1827      C1828   1.342       .  D
C1827      H1829   1.087   1_554  S
C1828      H1830   1.086       .  S
C1831      C1832   1.200       .  T
C1833      C1834   1.210       .  T
C1835      C1836   1.201       .  T
C1837      C1838   1.208       .  T
C1839      C1840   1.201       .  T
C1841      C1842   1.343       .  D
C1841      H1843   1.086       .  S
C1842      H1844   1.085   1_554  S
C1845      C1846   1.204       .  T
C1847      C1848   1.203       .  T
C1849      C1850   1.351       .  D
C1849      H1851   1.086       .  S
C1850      H1852   1.087       .  S
C1853      C1854   1.210       .  T
C1855      C1856   1.210       .  T
C1857      C1858   1.349       .  D
C1857      H1859   1.087   1_554  S
C1858      H1860   1.086       .  S
C1861      C1862   1.208       .  T
C1863      C1864   1.208       .  T
C1865      C1866   1.341       .  D
C1865      H1867   1.087       .  S
C1866      H1868   1.086       .  S
C1869      C1870   1.199       .  T
C1871      C1872   1.205       .  T
