geometry optimzed in LAMMPS
_audit_creation_date              2020-12-01 
_audit_creation_method            'lammps2cif' 
_symmetry_space_group_name_H-M    'P1' 
_symmetry_Int_Tables_number       1 
_symmetry_cell_setting            triclinic 
loop_ 
_symmetry_equiv_pos_as_xyz 
  x,y,z 
_cell_length_a                    53.56686071 
_cell_length_b                    52.36265688145665 
_cell_length_c                    52.36865518250045 
_cell_angle_alpha                 89.43707604727598 
_cell_angle_beta                  90.43263569631992 
_cell_angle_gamma                 90.2028171259398 
loop_ 
_atom_site_label 
_atom_site_type_symbol 
_atom_site_fract_x 
_atom_site_fract_y 
_atom_site_fract_z 
_atom_site_charge 
C1          C  0.05894844  0.66645148  0.94392586     0.03600
C2          C  0.04603064  0.67892470  0.92401052    -0.12500
C3          C  0.05611608  0.70072130  0.91206345     0.01100
C4          C  0.07933541  0.71014956  0.92022787    -0.11100
C5          C  0.09193236  0.69876082  0.94099933     0.03600
C6          C  0.08164615  0.67683783  0.95270500    -0.10500
H7          H  0.02767080  0.67221381  0.91834167     0.09200
H8          H  0.08724797  0.72688027  0.91099020     0.06700
H9          H  0.09090953  0.66831951  0.96915280     0.06600
C10         C  0.87271187  0.67728454  0.94805904     0.03600
C11         C  0.88319142  0.68767730  0.92585089    -0.12500
C12         C  0.87431604  0.71072083  0.91551753     0.01100
C13         C  0.85367684  0.72269924  0.92661975    -0.11100
C14         C  0.84322243  0.71281307  0.94924713     0.03600
C15         C  0.85269179  0.68983459  0.95964386    -0.10500
H16         H  0.89906078  0.67839993  0.91722592     0.09200
H17         H  0.84625783  0.73992524  0.91793567     0.06700
H18         H  0.84497464  0.68211485  0.97717990     0.06600
C19         C  0.86817377  0.66937673  0.13204437     0.03600
C20         C  0.84596620  0.68075939  0.12326349    -0.12500
C21         C  0.83667243  0.70286467  0.13485361     0.01100
C22         C  0.84948965  0.71318444  0.15585043    -0.11100
C23         C  0.87143241  0.70180647  0.16520317     0.03600
C24         C  0.88066890  0.67985140  0.15324312    -0.10500
H25         H  0.83683134  0.67337004  0.10634471     0.09200
H26         H  0.84316302  0.73095751  0.16400459     0.06700
H27         H  0.89829115  0.67175308  0.15952057     0.06600
C28         C  0.05200396  0.66890155  0.13076894     0.03600
C29         C  0.07131825  0.68006757  0.11654010    -0.12500
C30         C  0.08188968  0.70338413  0.12397472     0.01100
C31         C  0.07304945  0.71577093  0.14575888    -0.11100
C32         C  0.05269503  0.70566037  0.15933633     0.03600
C33         C  0.04263613  0.68196029  0.15196942    -0.10500
H34         H  0.07777699  0.67090080  0.09934737     0.09200
H35         H  0.08180028  0.73337353  0.15178879     0.06700
H36         H  0.02693191  0.67399384  0.16231771     0.06600
C37         C  0.86810578  0.36757992  0.13677466     0.03600
C38         C  0.84795851  0.35397561  0.12624534    -0.12500
C39         C  0.83928986  0.33126877  0.13763284     0.01100
C40         C  0.85008384  0.32285676  0.16073646    -0.11100
C41         C  0.87044015  0.33612063  0.17151646     0.03600
C42         C  0.87964699  0.35814803  0.15908299    -0.10500
H43         H  0.83971274  0.36047419  0.10836683     0.09200
H44         H  0.84318540  0.30567408  0.16996296     0.06700
H45         H  0.89646548  0.36723034  0.16621076     0.06600
C46         C  0.87160497  0.36331697  0.94145704     0.03600
C47         C  0.85107403  0.35207559  0.95365214    -0.12500
C48         C  0.83955055  0.33027589  0.94344451     0.01100
C49         C  0.84796371  0.32051159  0.92019275    -0.11100
C50         C  0.86874963  0.33141028  0.90799452     0.03600
C51         C  0.88051940  0.35279694  0.91879153    -0.10500
H52         H  0.84466878  0.35972173  0.97160901     0.09200
H53         H  0.83909755  0.30376022  0.91215769     0.06700
H54         H  0.89723426  0.36064193  0.91016385     0.06600
C55         C  0.05336344  0.36786641  0.93868136     0.03600
C56         C  0.04197286  0.35658179  0.91726725    -0.12500
C57         C  0.05260453  0.33497275  0.90579906     0.01100
C58         C  0.07486249  0.32483116  0.91585210    -0.11100
C59         C  0.08642721  0.33587979  0.93723010     0.03600
C60         C  0.07536652  0.35714933  0.94871172    -0.10500
H61         H  0.02433887  0.36396142  0.91016644     0.09200
H62         H  0.08270361  0.30775231  0.90761603     0.06700
H63         H  0.08323489  0.36470834  0.96620631     0.06600
C64         C  0.05160389  0.36263251  0.12855456     0.03600
C65         C  0.07011228  0.35014970  0.11466995    -0.12500
C66         C  0.08134352  0.32779950  0.12419709     0.01100
C67         C  0.07324036  0.31721528  0.14759619    -0.11100
C68         C  0.05360394  0.32870715  0.16106614     0.03600
C69         C  0.04341470  0.35165616  0.15159779    -0.10500
H70         H  0.07547654  0.35740873  0.09608920     0.09200
H71         H  0.08207631  0.30015319  0.15511015     0.06700
H72         H  0.02849632  0.36075448  0.16198036     0.06600
O73         O  0.00650126  0.55945349  0.09166110    -0.74800
O74         O  0.98631155  0.58864035  0.06662114    -0.53700
C75         C  0.00125745  0.58262351  0.08487234     0.78900
O76         O  0.01186727  0.47347749  0.98933523    -0.59400
O77         O  0.98696703  0.44471523  0.00959455    -0.52400
C78         C  0.00478338  0.45028165  0.99423912     0.70900
O79         O  0.01384788  0.56080496  0.99183835    -0.74000
O80         O  0.98967125  0.58991203  0.01208527    -0.54500
C81         C  0.00773305  0.58394691  0.99729773     0.76900
O82         O  0.00565597  0.47274742  0.09105506    -0.59100
O83         O  0.98443641  0.44432662  0.06624166    -0.52200
C84         C  0.99983754  0.44983837  0.08433187     0.73500
Zr85       Zr  0.99376866  0.51629044  0.07828586     2.54700
O86         O  0.03895180  0.51615342  0.08356691    -0.79700
O87         O  0.98617355  0.51546076  0.12406937    -0.93100
Zr88       Zr  0.99990146  0.51719473  0.00206625     2.64700
O89         O  0.04512553  0.51744353  0.00736945    -0.98100
O90         O  0.00264904  0.51804558  0.95569816    -0.80100
O91         O  0.99750467  0.54116136  0.04035988    -0.83500
O92         O  0.99726003  0.49232290  0.04006768    -2.18200
O93         O  0.90718021  0.47334672  0.08342645    -0.66900
O94         O  0.93049531  0.44440683  0.06210978    -0.51400
C95         C  0.91333960  0.45021113  0.07796480     0.71900
O96         O  0.91277506  0.56287533  0.98438241    -0.59800
O97         O  0.93378584  0.59065762  0.00981006    -0.51800
C98         C  0.91787189  0.58570248  0.99207597     0.73700
O99         O  0.91356617  0.47534255  0.98142545    -0.71200
O100        O  0.93326588  0.44604001  0.00656759    -0.49800
C101        C  0.91829920  0.45207975  0.98819079     0.75100
O102        O  0.90752010  0.56041077  0.08409295    -0.66500
O103        O  0.93204067  0.58980996  0.06413514    -0.53700
C104        C  0.91448456  0.58365578  0.07975259     0.73500
Zr105      Zr  0.91920078  0.51703545  0.07097144     2.77500
O106        O  0.87475794  0.51732369  0.06088646    -0.97200
O107        O  0.91109158  0.51534920  0.11659322    -0.78100
Zr108      Zr  0.92551942  0.51865529  0.99513871     2.70100
O109        O  0.88034828  0.51858593  0.99008153    -0.79300
O110        O  0.93165345  0.52051905  0.94911428    -0.98400
Zr111      Zr  0.96016799  0.56549012  0.03740356     2.21500
Zr112      Zr  0.95922392  0.46901882  0.03635326     2.11100
O113        O  0.92172373  0.49323894  0.03283812    -2.47100
O114        O  0.92212928  0.54240361  0.03336638    -0.79100
O115        O  0.95618328  0.49221552  0.07499932    -0.71300
O116        O  0.96315488  0.54256025  0.99841874    -2.32300
O117        O  0.95673720  0.54095633  0.07569597    -2.28500
O118        O  0.96233692  0.49341319  0.99795448    -0.73100
H119        H  0.01141503  0.48098914  0.04117496     0.78900
H120        H  0.96444386  0.55417195  0.98403728     0.80000
H121        H  0.90727437  0.48218903  0.03152522     0.82200
H122        H  0.95576984  0.55174836  0.09046794     0.79900
H123        H  0.02069853  0.52005876  0.95223198     0.42900
H124        H  0.94311464  0.53513204  0.94630229     0.41900
H125        H  0.87400821  0.51209468  0.00662917     0.41500
H126        H  0.86647423  0.51657296  0.07771330     0.39500
H127        H  0.92787882  0.51537990  0.12462634     0.42600
H128        H  0.00296375  0.51369916  0.13190805     0.37400
H129        H  0.04496784  0.52949288  0.07155019     0.43500
H130        H  0.04805602  0.51026893  0.02468774     0.39900
H131        H  0.87143110  0.53482068  0.05440116     0.44800
H132        H  0.97793340  0.49879988  0.12733856     0.43600
H133        H  0.05126410  0.50416692  0.99566934     0.43700
H134        H  0.94183239  0.50528430  0.94534290     0.44100
C135        C  0.61607564  0.92876932  0.13073656     0.03600
C136        C  0.62788439  0.90763239  0.11988750    -0.12500
C137        C  0.64916090  0.89688118  0.13153019     0.01100
C138        C  0.65796023  0.90663576  0.15475195    -0.11100
C139        C  0.64653543  0.92790434  0.16578899     0.03600
C140        C  0.62563452  0.93896334  0.15356119    -0.10500
H141        H  0.62099167  0.90003346  0.10198803     0.09200
H142        H  0.67428666  0.89824258  0.16378803     0.06700
H143        H  0.61718889  0.95589679  0.16145259     0.06600
C144        C  0.61719081  0.93176261  0.94746025     0.03600
C145        C  0.62831574  0.94155052  0.92522254    -0.12500
C146        C  0.64891362  0.92928194  0.91432469     0.01100
C147        C  0.65746984  0.90624943  0.92499209    -0.11100
C148        C  0.64705618  0.89653316  0.94759486     0.03600
C149        C  0.62689293  0.90939046  0.95875426    -0.10500
H150        H  0.62154247  0.95930555  0.91696313     0.09200
H151        H  0.67303794  0.89646217  0.91643288     0.06700
H152        H  0.61918903  0.90240680  0.97656955     0.06600
C153        C  0.61781515  0.11326151  0.94732532     0.03600
C154        C  0.62968743  0.13494405  0.95731390    -0.12500
C155        C  0.65128458  0.14499528  0.94585558     0.01100
C156        C  0.65967540  0.13464274  0.92294816    -0.11100
C157        C  0.64809563  0.11297473  0.91265662     0.03600
C158        C  0.62727707  0.10218066  0.92506768    -0.10500
H159        H  0.62257595  0.14354360  0.97452159     0.09200
H160        H  0.67567408  0.14296429  0.91344541     0.06700
H161        H  0.61865153  0.08503353  0.91758041     0.06600
C162        C  0.61353415  0.11201807  0.13452325     0.03600
C163        C  0.62520436  0.13263992  0.12182846    -0.12500
C164        C  0.64768760  0.14301998  0.13130615     0.01100
C165        C  0.65887929  0.13214615  0.15308005    -0.11100
C166        C  0.64785363  0.11123658  0.16545221     0.03600
C167        C  0.62443775  0.10238286  0.15711797    -0.10500
H168        H  0.61744766  0.13978155  0.10398619     0.09200
H169        H  0.67676496  0.13930021  0.15974331     0.06700
H170        H  0.61532693  0.08712197  0.16759670     0.06600
C171        C  0.31106490  0.11745571  0.94733010     0.03600
C172        C  0.30130663  0.10559091  0.92536320    -0.12500
C173        C  0.28080511  0.11619179  0.91203634     0.01100
C174        C  0.26973682  0.13846136  0.92109256    -0.11100
C175        C  0.27808460  0.14948469  0.94382751     0.03600
C176        C  0.29946449  0.13965237  0.95618494    -0.10500
H177        H  0.30928200  0.08777114  0.91902857     0.09200
H178        H  0.25401036  0.14660578  0.91085574     0.06700
H179        H  0.30677738  0.14913167  0.97292279     0.06600
C180        C  0.31134348  0.92666696  0.94692412     0.03600
C181        C  0.29998954  0.93750775  0.92514329    -0.12500
C182        C  0.27830989  0.92662028  0.91448872     0.01100
C183        C  0.26888843  0.90378722  0.92494281    -0.11100
C184        C  0.27981739  0.89283691  0.94694980     0.03600
C185        C  0.30109895  0.90438963  0.95781619    -0.10500
H186        H  0.30740403  0.95511712  0.91715924     0.09200
H187        H  0.25227360  0.89519359  0.91678368     0.06700
H188        H  0.30892613  0.89687554  0.97547026     0.06600
C189        C  0.31177510  0.92442045  0.12635368     0.03600
C190        C  0.30050665  0.90194239  0.11730613    -0.12500
C191        C  0.27936142  0.89144054  0.12943893     0.01100
C192        C  0.26941539  0.90414354  0.15068588    -0.11100
C193        C  0.28023327  0.92684033  0.15969877     0.03600
C194        C  0.30153126  0.93673544  0.14754124    -0.10500
H195        H  0.30749643  0.89350427  0.10003919     0.09200
H196        H  0.25263077  0.89688636  0.15966911     0.06700
H197        H  0.30959535  0.95459211  0.15395692     0.06600
C198        C  0.31192233  0.11711763  0.12705491     0.03600
C199        C  0.30148785  0.10614750  0.14915743    -0.12500
C200        C  0.28091049  0.11730796  0.16122682     0.01100
C201        C  0.27009091  0.13930019  0.15028258    -0.11100
C202        C  0.27882797  0.14933498  0.12701654     0.03600
C203        C  0.30007367  0.13841869  0.11574615    -0.10500
H204        H  0.30888230  0.08823878  0.15635421     0.09200
H205        H  0.25413795  0.14791530  0.15934762     0.06700
H206        H  0.30663836  0.14578946  0.09759410     0.06600
O207        O  0.50410979  0.07032686  0.09189972    -0.74800
O208        O  0.53314123  0.04965216  0.06819715    -0.53700
C209        C  0.52686282  0.06523515  0.08583848     0.78900
O210        O  0.42119585  0.96759623  0.08496400    -0.59400
O211        O  0.39275554  0.99153405  0.06319642    -0.52400
C212        C  0.39846893  0.97363518  0.07922233     0.70900
O213        O  0.50682981  0.96977327  0.08665200    -0.74000
O214        O  0.53497216  0.99480971  0.06593166    -0.54500
C215        C  0.52945934  0.97684709  0.08186221     0.76900
O216        O  0.41839238  0.07003363  0.08806270    -0.59100
O217        O  0.39110564  0.04742695  0.06364162    -0.52200
C218        C  0.39595773  0.06379772  0.08103230     0.73500
Zr219      Zr  0.46189972  0.05806688  0.07747940     2.54700
O220        O  0.46012172  0.05135518  0.12349620    -0.79700
O221        O  0.46289244  0.10438280  0.08138319    -0.93100
Zr222      Zr  0.46383935  0.98197017  0.07425404     2.64700
O223        O  0.46519120  0.98309811  0.12065778    -0.98100
O224        O  0.46462679  0.93551634  0.07348551    -0.80100
O225        O  0.48693416  0.02061988  0.07667775    -0.83500
O226        O  0.43882528  0.01938465  0.07588327    -2.18200
O227        O  0.42077379  0.07591271  0.99009570    -0.66900
O228        O  0.39234936  0.05020745  0.00979557    -0.51400
C229        C  0.39810720  0.06891419  0.99480386     0.71900
O230        O  0.50779770  0.97554766  0.98499869    -0.59800
O231        O  0.53533096  0.99748033  0.00974993    -0.51800
C232        C  0.53029246  0.98166642  0.99175986     0.73700
O233        O  0.42170083  0.97141420  0.98572192    -0.71200
O234        O  0.39322012  0.99329275  0.00863551    -0.49800
C235        C  0.39892888  0.97657489  0.99190240     0.75100
O236        O  0.50659951  0.07449263  0.98863067    -0.66500
O237        O  0.53464487  0.05151837  0.01196130    -0.53700
C238        C  0.52924732  0.06848655  0.99492796     0.73500
Zr239      Zr  0.46358310  0.06190838  0.00087903     2.77500
O240        O  0.46119400  0.06134418  0.95447733    -0.97200
O241        O  0.46611601  0.10831845  0.00253232    -0.78100
Zr242      Zr  0.46447634  0.98548587  0.99781141     2.70100
O243        O  0.46330752  0.98857957  0.95140497    -0.79300
O244        O  0.46675015  0.93902931  0.99768644    -0.98400
Zr245      Zr  0.51066314  0.02283232  0.03853469     2.21500
Zr246      Zr  0.41627233  0.02105789  0.03658626     2.11100
O247        O  0.44005382  0.02334440  0.99833355    -2.47100
O248        O  0.48795559  0.02414738  0.99936292    -0.79100
O249        O  0.43893890  0.06016518  0.03852631    -0.71300
O250        O  0.48806824  0.98366003  0.03646094    -2.32300
O251        O  0.48656237  0.06097857  0.03981852    -2.28500
O252        O  0.44024967  0.98289752  0.03558538    -0.73100
H253        H  0.42757572  0.01842920  0.09029375     0.78900
H254        H  0.49929433  0.96930093  0.03611513     0.80000
H255        H  0.42920551  0.02389740  0.98345599     0.82200
H256        H  0.49732862  0.07597098  0.04064077     0.79900
H257        H  0.45601185  0.93103815  0.05733680     0.42900
H258        H  0.46966560  0.93458577  0.97962723     0.41900
H259        H  0.46377545  0.97066483  0.94557168     0.43600
H260        H  0.46800334  0.07808345  0.94895259     0.39500
H261        H  0.45414678  0.11450134  0.98940266     0.42600
H262        H  0.44817517  0.10881673  0.09173780     0.37400
H263        H  0.46709632  0.06724159  0.13080843     0.43500
H264        H  0.45037311  0.99310184  0.12556612     0.39900
H265        H  0.47389943  0.04873408  0.94937519     0.44800
H266        H  0.45889951  0.11086788  0.06401415     0.43600
H267        H  0.46146610  0.96535402  0.12613676     0.43700
H268        H  0.48263997  0.93485157  0.00653115     0.44100
C269        C  0.05901663  0.92823262  0.69096876     0.03600
C270        C  0.04946616  0.90569820  0.70182423    -0.12500
C271        C  0.06091848  0.89449834  0.72341125     0.01100
C272        C  0.08216561  0.90615685  0.73410948    -0.11100
C273        C  0.09157603  0.92906916  0.72375294     0.03600
C274        C  0.08022319  0.93969953  0.70183103    -0.10500
H275        H  0.03276324  0.89714753  0.69375972     0.09200
H276        H  0.09106617  0.89762069  0.75073147     0.06700
H277        H  0.08730358  0.95743734  0.69380756     0.06600
C278        C  0.87394795  0.93319208  0.69355347     0.03600
C279        C  0.85207776  0.94283243  0.70444360    -0.12500
C280        C  0.84434345  0.93448064  0.72870953     0.01100
C281        C  0.85725546  0.91457607  0.74113832    -0.11100
C282        C  0.87879981  0.90429214  0.73021337     0.03600
C283        C  0.88702350  0.91368182  0.70643111    -0.10500
H284        H  0.84169366  0.95771554  0.69460320     0.09200
H285        H  0.85083979  0.90760122  0.75949486     0.06700
H286        H  0.90393358  0.90612872  0.69818522     0.06600
C287        C  0.86722527  0.11106730  0.68390218     0.03600
C288        C  0.87856077  0.13296439  0.69413318    -0.12500
C289        C  0.86858148  0.14511437  0.71549327     0.01100
C290        C  0.84614269  0.13606501  0.72590192    -0.11100
C291        C  0.83476398  0.11375129  0.71653820     0.03600
C292        C  0.84569303  0.10110121  0.69571925    -0.10500
H293        H  0.89584605  0.14003472  0.68600790     0.09200
H294        H  0.83803153  0.14578912  0.74197846     0.06700
H295        H  0.83798053  0.08307859  0.68941367     0.06600
C296        C  0.05623925  0.11399745  0.69054539     0.03600
C297        C  0.04475487  0.13475718  0.70236446    -0.12500
C298        C  0.05488010  0.14566901  0.72463286     0.01100
C299        C  0.07642728  0.13471338  0.73580917    -0.11100
C300        C  0.08715059  0.11270225  0.72526128     0.03600
C301        C  0.07734543  0.10295457  0.70233286    -0.10500
H302        H  0.02726815  0.14197007  0.69477833     0.09200
H303        H  0.08471077  0.14298704  0.75270905     0.06700
H304        H  0.08569369  0.08613579  0.69408901     0.06600
C305        C  0.87205870  0.11419843  0.38109815     0.03600
C306        C  0.88212084  0.13664464  0.37066394    -0.12500
C307        C  0.87167880  0.14819181  0.34868494     0.01100
C308        C  0.85052144  0.13675208  0.33716686    -0.11100
C309        C  0.84095336  0.11348409  0.34684134     0.03600
C310        C  0.85170663  0.10253105  0.36893367    -0.10500
H311        H  0.89859489  0.14491426  0.37950919     0.09200
H312        H  0.84155851  0.14565901  0.32084409     0.06700
H313        H  0.84459043  0.08453060  0.37630730     0.06600
C314        C  0.86981839  0.92284894  0.38585714     0.03600
C315        C  0.88129134  0.90297724  0.37274184    -0.12500
C316        C  0.87011432  0.89237016  0.35088622     0.01100
C317        C  0.84673334  0.90152641  0.34259941    -0.11100
C318        C  0.83547258  0.92227840  0.35491430     0.03600
C319        C  0.84731834  0.93292370  0.37639791    -0.10500
H320        H  0.89955691  0.89645296  0.37895961     0.09200
H321        H  0.83769617  0.89324813  0.32609203     0.06700
H322        H  0.83976581  0.94989823  0.38504129     0.06600
C323        C  0.06434182  0.92570802  0.38641536     0.03600
C324        C  0.05177248  0.90586271  0.37366743    -0.12500
C325        C  0.06195267  0.89469367  0.35173108     0.01100
C326        C  0.08527158  0.90316998  0.34295787    -0.11100
C327        C  0.09752933  0.92389772  0.35455526     0.03600
C328        C  0.08693288  0.93502321  0.37633240    -0.10500
H329        H  0.03357141  0.89971723  0.38027163     0.09200
H330        H  0.09344368  0.89440920  0.32636870     0.06700
H331        H  0.09581854  0.95150198  0.38491614     0.06600
C332        C  0.06111901  0.11457446  0.38653682     0.03600
C333        C  0.07887970  0.10051202  0.37277944    -0.12500
C334        C  0.08842153  0.10961559  0.34937482     0.01100
C335        C  0.07865815  0.13245337  0.33871477    -0.11100
C336        C  0.05982780  0.14610117  0.35149713     0.03600
C337        C  0.05237487  0.13762782  0.37579661    -0.10500
H338        H  0.08508633  0.08216247  0.37995166     0.09200
H339        H  0.08546962  0.13935113  0.32050873     0.06700
H340        H  0.03877486  0.14880773  0.38596136     0.06600
O341        O  0.01554882  0.96885227  0.57944929    -0.74800
O342        O  0.99278212  0.99095319  0.60808533    -0.53700
C343        C  0.00980141  0.97468686  0.60249991     0.78900
O344        O  0.01744621  0.07170375  0.49616663    -0.59400
O345        O  0.99514407  0.05020290  0.46576708    -0.52400
C346        C  0.01163596  0.06678667  0.47290038     0.70900
O347        O  0.01515659  0.06872154  0.58170975    -0.74000
O348        O  0.99153035  0.04567022  0.60952237    -0.54500
C349        C  0.00860963  0.06223103  0.60456256     0.76900
O350        O  0.01748995  0.97027334  0.49252812    -0.59100
O351        O  0.99528797  0.99305293  0.46305689    -0.52200
C352        C  0.01236257  0.97689863  0.46921507     0.73500
Zr353      Zr  0.00274944  0.98059864  0.53583336     2.54700
O354        O  0.04802777  0.97724249  0.53599285    -0.79700
O355        O  0.99833218  0.93433729  0.53498628    -0.93100
Zr356      Zr  0.00330511  0.05709913  0.53773869     2.64700
O357        O  0.04873088  0.05561731  0.53773899    -0.98100
O358        O  0.00215335  0.10353538  0.53907611    -0.80100
O359        O  0.00340482  0.01819394  0.56120208    -0.83500
O360        O  0.00410822  0.01954375  0.51244920    -2.18200
O361        O  0.91659171  0.96878738  0.49099199    -0.66900
O362        O  0.94041487  0.99102532  0.46261571    -0.51400
C363        C  0.92312368  0.97474749  0.46797931     0.71900
O364        O  0.91564707  0.06940596  0.57760366    -0.59800
O365        O  0.93674021  0.04517187  0.60686175    -0.51800
C366        C  0.92093216  0.06260480  0.60086353     0.73700
O367        O  0.91968964  0.07186986  0.48925352    -0.71200
O368        O  0.93888454  0.04546180  0.46166157    -0.49800
C369        C  0.92469759  0.06440893  0.46626531     0.75100
O370        O  0.91381077  0.96945036  0.57835767    -0.66500
O371        O  0.93764664  0.99063577  0.60744282    -0.53700
C372        C  0.92005941  0.97497136  0.60157964     0.73500
Zr373      Zr  0.92815502  0.98101045  0.53475550     2.77500
O374        O  0.88277813  0.98177337  0.53185407    -0.97200
O375        O  0.92895523  0.93455165  0.53646236    -0.78100
Zr376      Zr  0.92859874  0.05752169  0.53401156     2.70100
O377        O  0.88335215  0.05366175  0.53082961    -0.79300
O378        O  0.92649089  0.10391777  0.53552816    -0.98400
Zr379      Zr  0.96506034  0.01837471  0.58367691     2.21500
Zr380      Zr  0.96708979  0.01972560  0.48704149     2.11100
O381        O  0.92874011  0.01940395  0.50996828    -2.47100
O382        O  0.92757985  0.01914257  0.55890049    -0.79100
O383        O  0.96579554  0.98062677  0.51061252    -0.71300
O384        O  0.96521297  0.05754232  0.56023226    -2.32300
O385        O  0.96520512  0.97984310  0.55984341    -2.28500
O386        O  0.96683814  0.05810363  0.51122988    -0.73100
H387        H  0.01877517  0.01992384  0.50186883     0.78900
H388        H  0.96500835  0.07201658  0.57153976     0.80000
H389        H  0.91461698  0.01951195  0.49838358     0.82200
H390        H  0.96497307  0.96504177  0.57101484     0.79900
H391        H  0.98416677  0.10774070  0.53968901     0.42900
H392        H  0.93813878  0.10989742  0.52213462     0.41900
H393        H  0.87685480  0.06488426  0.54433767     0.41500
H394        H  0.87752879  0.96422264  0.53661576     0.39500
H395        H  0.94253156  0.92976179  0.52474294     0.42600
H396        H  0.01558718  0.92801359  0.53289060     0.37400
H397        H  0.05393708  0.99422764  0.53013335     0.43500
H398        H  0.05408724  0.06931345  0.54949258     0.39900
H399        H  0.87749243  0.99243191  0.54634635     0.44800
H400        H  0.99007225  0.93080848  0.51840816     0.43600
H401        H  0.05289476  0.03955581  0.54691309     0.43700
H402        H  0.90969446  0.10811435  0.52870039     0.44100
C403        C  0.94351113  0.29983935  0.24340627    -0.10400
C404        C  0.96621881  0.30808618  0.23328430    -0.04200
C405        C  0.98904226  0.29874584  0.24247455    -0.10400
C406        C  0.98930933  0.28113168  0.26318679     0.10600
C407        C  0.96639350  0.27344960  0.27446847    -0.02200
C408        C  0.94342667  0.28314730  0.26475125     0.10400
C409        C  0.92093537  0.27506068  0.27585736    -0.12200
C410        C  0.92081532  0.25658274  0.29514635    -0.12200
C411        C  0.94319100  0.24565648  0.30409435     0.10400
C412        C  0.96627606  0.25459610  0.29419966    -0.02200
C413        C  0.01169182  0.27030083  0.27226147    -0.12300
C414        C  0.01156494  0.25167510  0.29154348    -0.12300
C415        C  0.98905920  0.24329579  0.30252375     0.10600
C416        C  0.98855529  0.22314350  0.32080141    -0.10400
C417        C  0.96557093  0.21465844  0.33028332    -0.04200
C418        C  0.94295548  0.22519851  0.32186806    -0.10400
H419        H  0.90318766  0.28253433  0.26922219     0.07800
H420        H  0.90296709  0.25054787  0.30272724     0.07800
H421        H  0.02946528  0.27591367  0.26420329     0.08000
H422        H  0.02925524  0.24359763  0.29757428     0.08000
H423        H  0.96604141  0.32032926  0.21643009     0.04500
H424        H  0.96516270  0.19803688  0.34282616     0.04500
C425        C  0.23758824  0.99895584  0.22959064    -0.10400
C426        C  0.24591792  0.02284727  0.22099167    -0.04200
C427        C  0.23611545  0.04563756  0.23030505    -0.10400
C428        C  0.21842039  0.04479174  0.25030571     0.10600
C429        C  0.21058605  0.02073975  0.26027101    -0.02200
C430        C  0.22027904  0.99771797  0.24997513     0.10400
C431        C  0.21194167  0.97419602  0.25990271    -0.12200
C432        C  0.19419848  0.97316089  0.27931891    -0.12200
C433        C  0.18378035  0.99559439  0.28916389     0.10400
C434        C  0.19212575  0.01968063  0.27971985    -0.02200
C435        C  0.20759426  0.06720892  0.25977629    -0.12300
C436        C  0.18907409  0.06612730  0.27843264    -0.12300
C437        C  0.18117350  0.04264253  0.28880242     0.10600
C438        C  0.16228836  0.04128095  0.30767855    -0.10400
C439        C  0.15504147  0.01740680  0.31721030    -0.04200
C440        C  0.16477860  0.99468957  0.30781143    -0.10400
H441        H  0.21908618  0.95638486  0.25264861     0.07800
H442        H  0.18834598  0.95457926  0.28633790     0.07800
H443        H  0.21307218  0.08577649  0.25241227     0.08000
H444        H  0.18097987  0.08387346  0.28475581     0.08000
H445        H  0.25903951  0.02370495  0.20530276     0.04500
H446        H  0.14005391  0.01640757  0.33104258     0.04500
C447        C  0.15560863  0.29316159  0.05426622    -0.10400
C448        C  0.14639847  0.30131031  0.03052972    -0.04200
C449        C  0.15563573  0.29176092  0.00771629    -0.10400
C450        C  0.17608805  0.27479877  0.00837523     0.10600
C451        C  0.18636760  0.26701355  0.03235899    -0.02200
C452        C  0.17587901  0.27594820  0.05542980     0.10400
C453        C  0.18544727  0.26689167  0.07890052    -0.12200
C454        C  0.20519772  0.24954472  0.07979255    -0.12200
C455        C  0.21583632  0.24040856  0.05723746     0.10400
C456        C  0.20632368  0.24923903  0.03328037    -0.02200
C457        C  0.18610509  0.26497791  0.98583225    -0.12300
C458        C  0.20566650  0.24752099  0.98674077    -0.12300
C459        C  0.21590460  0.23935200  0.01022398     0.10600
C460        C  0.23520864  0.22111778  0.01130692    -0.10400
C461        C  0.24483429  0.21318180  0.03485948    -0.04200
C462        C  0.23531989  0.22215279  0.05780837    -0.10400
H463        H  0.17765709  0.27314774  0.09678749     0.07800
H464        H  0.21201500  0.24318424  0.09829780     0.07800
H465        H  0.17872596  0.27060301  0.96731653     0.08000
H466        H  0.21270531  0.24038407  0.96885365     0.08000
H467        H  0.13033886  0.31390892  0.02985259     0.04500
H468        H  0.25895411  0.19834674  0.03537132     0.04500
C469        C  0.68895065  0.99567140  0.23947842    -0.10400
C470        C  0.67980590  0.01905684  0.23063034    -0.04200
C471        C  0.68975970  0.04222800  0.23897391    -0.10400
C472        C  0.70890980  0.04221516  0.25765270     0.10600
C473        C  0.71711608  0.01862357  0.26835913    -0.02200
C474        C  0.70701834  0.99520717  0.25931849     0.10400
C475        C  0.71565292  0.97208968  0.26988842    -0.12200
C476        C  0.73451057  0.97186113  0.28843366    -0.12200
C477        C  0.74544368  0.99474644  0.29692176     0.10400
C478        C  0.73648963  0.01838689  0.28702622    -0.02200
C479        C  0.72063708  0.06497782  0.26519946    -0.12300
C480        C  0.73987218  0.06471492  0.28325202    -0.12300
C481        C  0.74789574  0.04170653  0.29459683     0.10600
C482        C  0.76761853  0.04126013  0.31270133    -0.10400
C483        C  0.77578368  0.01785320  0.32267360    -0.04200
C484        C  0.76575049  0.99467392  0.31434993    -0.10400
H485        H  0.70803121  0.95400065  0.26362154     0.07800
H486        H  0.74079123  0.95357456  0.29581446     0.07800
H487        H  0.71515051  0.08318759  0.25699930     0.08000
H488        H  0.74845987  0.08274942  0.28825543     0.08000
H489        H  0.66612462  0.01922331  0.21521410     0.04500
H490        H  0.79172189  0.01757531  0.33560091     0.04500
C491        C  0.94239901  0.74905118  0.23285652    -0.10400
C492        C  0.96499564  0.73861047  0.22507307    -0.04200
C493        C  0.98793111  0.74782895  0.23395051    -0.10400
C494        C  0.98851122  0.76720292  0.25258128     0.10600
C495        C  0.96569126  0.77712007  0.26188377    -0.02200
C496        C  0.94250048  0.76815291  0.25185517     0.10400
C497        C  0.92021996  0.77882389  0.26074082    -0.12200
C498        C  0.92059771  0.79791284  0.27919182    -0.12200
C499        C  0.94328938  0.80719815  0.28922683     0.10400
C500        C  0.96609860  0.79679458  0.28044612    -0.02200
C501        C  0.01121160  0.77720018  0.26177699    -0.12300
C502        C  0.01160845  0.79653942  0.27995407    -0.12300
C503        C  0.98931806  0.80654157  0.28962213     0.10600
C504        C  0.98950939  0.82637522  0.30787624    -0.10400
C505        C  0.96682850  0.83610170  0.31647023    -0.04200
C506        C  0.94385752  0.82686836  0.30758877    -0.10400
H507        H  0.90230994  0.77240807  0.25347887     0.07800
H508        H  0.90291205  0.80545984  0.28548221     0.07800
H509        H  0.02887408  0.77003816  0.25498372     0.08000
H510        H  0.02956125  0.80361324  0.28643915     0.08000
H511        H  0.96480072  0.72442533  0.21007798     0.04500
H512        H  0.96705814  0.85178238  0.32987680     0.04500
C513        C  0.23653227  0.99868591  0.84308640    -0.10400
C514        C  0.24548066  0.02201343  0.85210635    -0.04200
C515        C  0.23635966  0.04529407  0.84281512    -0.10400
C516        C  0.21858118  0.04554228  0.82267906     0.10600
C517        C  0.20989837  0.02199461  0.81258739    -0.02200
C518        C  0.21857090  0.99845540  0.82311762     0.10400
C519        C  0.20875410  0.97543759  0.81372385    -0.12200
C520        C  0.19117558  0.97541320  0.79391733    -0.12200
C521        C  0.18256987  0.99841830  0.78303011     0.10400
C522        C  0.19175278  0.02197162  0.79263445    -0.02200
C523        C  0.20878729  0.06854510  0.81286622    -0.12300
C524        C  0.19050599  0.06848917  0.79369537    -0.12300
C525        C  0.18184619  0.04545975  0.78324565     0.10600
C526        C  0.16323723  0.04513618  0.76388152    -0.10400
C527        C  0.15575726  0.02185602  0.75352948    -0.04200
C528        C  0.16451531  0.99859641  0.76318551    -0.10400
H529        H  0.21475770  0.95723223  0.82154291     0.07800
H530        H  0.18434953  0.95719038  0.78713536     0.07800
H531        H  0.21503228  0.08676728  0.82019281     0.08000
H532        H  0.18335237  0.08665105  0.78687284     0.08000
H533        H  0.25872293  0.02203763  0.86790966     0.04500
H534        H  0.14089119  0.02173295  0.73930770     0.04500
C535        C  0.93574268  0.28662770  0.83805444    -0.10400
C536        C  0.95820063  0.29568227  0.84841003    -0.04200
C537        C  0.98129680  0.28883517  0.83841021    -0.10400
C538        C  0.98214544  0.27299830  0.81674465     0.10600
C539        C  0.95950967  0.26380015  0.80575300    -0.02200
C540        C  0.93617259  0.27066729  0.81639019     0.10400
C541        C  0.91409311  0.26069198  0.80568117    -0.12200
C542        C  0.91489139  0.24388685  0.78513992    -0.12200
C543        C  0.93778719  0.23654952  0.77454710     0.10400
C544        C  0.96029323  0.24685484  0.78474472    -0.02200
C545        C  0.00501104  0.26567501  0.80617158    -0.12300
C546        C  0.00577289  0.24885406  0.78577247    -0.12300
C547        C  0.98368579  0.23904267  0.77499475     0.10600
C548        C  0.98444914  0.22090547  0.75524892    -0.10400
C549        C  0.96215200  0.21135368  0.74508552    -0.04200
C550        C  0.93892109  0.21862096  0.75448814    -0.10400
H551        H  0.89603628  0.26557947  0.81335849     0.07800
H552        H  0.89741515  0.23651859  0.77768316     0.07800
H553        H  0.02254886  0.27257790  0.81391450     0.08000
H554        H  0.02386559  0.24347292  0.77851550     0.08000
H555        H  0.95772267  0.30759293  0.86524884     0.04500
H556        H  0.96295716  0.19627988  0.73102668     0.04500
C557        C  0.16181000  0.74257698  0.00993850    -0.10400
C558        C  0.15176372  0.73230051  0.03231923    -0.04200
C559        C  0.15741303  0.74236315  0.05628549    -0.10400
C560        C  0.17544326  0.76211917  0.05835846     0.10600
C561        C  0.18695231  0.77185581  0.03588575    -0.02200
C562        C  0.17995600  0.76220169  0.01154194     0.10400
C563        C  0.19071853  0.77287140  0.98950174    -0.12200
C564        C  0.20738317  0.79333132  0.99115301    -0.12200
C565        C  0.21428984  0.80343312  0.01495393     0.10400
C566        C  0.20437268  0.79233074  0.03761416    -0.02200
C567        C  0.18184235  0.77279773  0.08208184    -0.12300
C568        C  0.19991653  0.79201980  0.08390928    -0.12300
C569        C  0.21118720  0.80225776  0.06192114     0.10600
C570        C  0.22838453  0.82287891  0.06330045    -0.10400
C571        C  0.23786770  0.83341270  0.04077659    -0.04200
C572        C  0.23053748  0.82466928  0.01679045    -0.10400
H573        H  0.18595297  0.76568664  0.97075891     0.07800
H574        H  0.21480262  0.80125316  0.97359700     0.07800
H575        H  0.17305979  0.76615187  0.09948158     0.08000
H576        H  0.20447876  0.79940161  0.10262247     0.08000
H577        H  0.13719662  0.71789407  0.03084296     0.04500
H578        H  0.25067910  0.84949208  0.04190907     0.04500
C579        C  0.77170463  0.28969064  0.01742660    -0.10400
C580        C  0.78107744  0.29806835  0.04087075    -0.04200
C581        C  0.77297695  0.28749479  0.06399623    -0.10400
C582        C  0.75430756  0.26831384  0.06390065     0.10600
C583        C  0.74403953  0.26014884  0.04024986    -0.02200
C584        C  0.75305382  0.27055159  0.01690061     0.10400
C585        C  0.74358437  0.26120420  0.99367284    -0.12200
C586        C  0.72516178  0.24235544  0.99332358    -0.12200
C587        C  0.71562281  0.23221514  0.01618270     0.10400
C588        C  0.72531099  0.24092381  0.03989157    -0.02200
C589        C  0.74592673  0.25682550  0.08668765    -0.12300
C590        C  0.72745694  0.23793152  0.08633518    -0.12300
C591        C  0.71681550  0.22985732  0.06317937     0.10600
C592        C  0.69815307  0.21068984  0.06241118    -0.10400
C593        C  0.68779480  0.20363312  0.03906310    -0.04200
C594        C  0.69669291  0.21342603  0.01607621    -0.10400
H595        H  0.75021992  0.26859335  0.97556252     0.07800
H596        H  0.71825011  0.23592211  0.97498748     0.07800
H597        H  0.75355320  0.26246756  0.10499613     0.08000
H598        H  0.72150042  0.22970013  0.10434248     0.08000
H599        H  0.79603676  0.31210787  0.04106942     0.04500
H600        H  0.67360816  0.18875612  0.03867284     0.04500
C601        C  0.94220060  0.74694694  0.83977733    -0.10400
C602        C  0.96433701  0.73516121  0.84759454    -0.04200
C603        C  0.98753186  0.74325295  0.83858657    -0.10400
C604        C  0.98868526  0.76267591  0.81962247     0.10600
C605        C  0.96621649  0.77422353  0.81073992    -0.02200
C606        C  0.94293906  0.76675818  0.82134735     0.10400
C607        C  0.92117844  0.77984274  0.81395861    -0.12200
C608        C  0.92208886  0.79960592  0.79602110    -0.12200
C609        C  0.94475864  0.80684938  0.78470117     0.10400
C610        C  0.96713375  0.79433050  0.79237149    -0.02200
C611        C  0.01160349  0.77130084  0.80982023    -0.12300
C612        C  0.01249627  0.79092948  0.79157028    -0.12300
C613        C  0.99052293  0.80284001  0.78278843     0.10600
C614        C  0.99121795  0.82362031  0.76528797    -0.10400
C615        C  0.96887275  0.83443915  0.75662821    -0.04200
C616        C  0.94581381  0.82686600  0.76647938    -0.10400
H617        H  0.90324124  0.77488691  0.82205229     0.07800
H618        H  0.90482690  0.80920954  0.79108670     0.07800
H619        H  0.02901403  0.76285924  0.81621401     0.08000
H620        H  0.03056777  0.79695546  0.78455298     0.08000
H621        H  0.96367935  0.72096938  0.86284472     0.04500
H622        H  0.96959869  0.85063556  0.74354244     0.04500
C623        C  0.68960555  0.04465289  0.84019222    -0.10400
C624        C  0.68061870  0.02122478  0.84916776    -0.04200
C625        C  0.69073407  0.99813052  0.84121838    -0.10400
C626        C  0.71032547  0.99828863  0.82325535     0.10600
C627        C  0.71864958  0.02193603  0.81273514    -0.02200
C628        C  0.70800893  0.04522869  0.82098926     0.10400
C629        C  0.71651723  0.06841378  0.81040931    -0.12200
C630        C  0.73578838  0.06885686  0.79261847    -0.12200
C631        C  0.74729887  0.04614537  0.78497214     0.10400
C632        C  0.73846460  0.02238539  0.79486942    -0.02200
C633        C  0.72219591  0.97561300  0.81605517    -0.12300
C634        C  0.74195644  0.97608550  0.79884667    -0.12300
C635        C  0.75007944  0.99915684  0.78772553     0.10600
C636        C  0.76988842  0.99986501  0.77004022    -0.10400
C637        C  0.77795478  0.02334457  0.76021228    -0.04200
C638        C  0.76763499  0.04639498  0.76789976    -0.10400
H639        H  0.70844170  0.08640413  0.81607507     0.07800
H640        H  0.74188800  0.08717012  0.78512584     0.07800
H641        H  0.71640752  0.95733593  0.82388908     0.08000
H642        H  0.75084104  0.95818620  0.79427235     0.08000
H643        H  0.66677116  0.02100720  0.86421203     0.04500
H644        H  0.79364539  0.02376349  0.74719102     0.04500
C645        C  0.77264599  0.75450755  0.06428902    -0.10400
C646        C  0.78129730  0.74530771  0.04112263    -0.04200
C647        C  0.77158770  0.75387360  0.01781688    -0.10400
C648        C  0.75191406  0.77178341  0.01744102     0.10600
C649        C  0.74206091  0.78045433  0.04093191    -0.02200
C650        C  0.75249729  0.77181782  0.06450315     0.10400
C651        C  0.74285158  0.78103766  0.08750184    -0.12200
C652        C  0.72330052  0.79855365  0.08742495    -0.12200
C653        C  0.71282758  0.80748626  0.06434658     0.10400
C654        C  0.72230005  0.79841900  0.04085308    -0.02200
C655        C  0.74205431  0.78141781  0.99436067    -0.12300
C656        C  0.72277269  0.79927745  0.99429089    -0.12300
C657        C  0.71274032  0.80808305  0.01729607     0.10600
C658        C  0.69369873  0.82670354  0.01752838    -0.10400
C659        C  0.68366995  0.83430788  0.04074262    -0.04200
C660        C  0.69329350  0.82554745  0.06404352    -0.10400
H661        H  0.75041507  0.77478362  0.10573756     0.07800
H662        H  0.71640131  0.80507678  0.10560828     0.07800
H663        H  0.74921935  0.77518239  0.97618349     0.08000
H664        H  0.71577705  0.80623215  0.97606608     0.08000
H665        H  0.79688421  0.73209223  0.04119669     0.04500
H666        H  0.66940008  0.84899148  0.04072374     0.04500
C667        C  0.04406148  0.19086759  0.35386937    -0.05300
C668        C  0.04580691  0.16812983  0.33972993     0.00600
C669        C  0.02995106  0.16516499  0.31800775    -0.07900
C670        C  0.01303276  0.18470210  0.31151093    -0.05300
C671        C  0.01050642  0.20653675  0.32638432     0.00600
C672        C  0.02627981  0.20992378  0.34782157    -0.07900
C673        C  0.02341089  0.23304109  0.36472247     0.62500
H674        H  0.05575156  0.19284518  0.37070252     0.13200
H675        H  0.00068545  0.18263453  0.29517223     0.13200
C676        C  0.03032488  0.14154695  0.30160463     0.62800
F677        F  0.99981008  0.23307283  0.37526117    -0.22400
F678        F  0.02660066  0.25509821  0.35037165    -0.19700
F679        F  0.04075764  0.23315249  0.38444561    -0.19400
F680        F  0.03015351  0.11964869  0.31658820    -0.19500
F681        F  0.05144760  0.14248655  0.28671237    -0.19800
F682        F  0.00978881  0.14027067  0.28543818    -0.22500
C683        C  0.12245958  0.06438720  0.30429947    -0.05300
C684        C  0.14627346  0.06314761  0.31549689     0.00600
C685        C  0.15138310  0.07788016  0.33747959    -0.07900
C686        C  0.13240892  0.09377540  0.34723087    -0.05300
C687        C  0.10831732  0.09459740  0.33624813     0.00600
C688        C  0.10316033  0.07906974  0.31477112    -0.07900
C689        C  0.07710838  0.07685117  0.30363835     0.62500
H690        H  0.11865993  0.05225778  0.28807852     0.13200
H691        H  0.13599110  0.10511716  0.36405755     0.13200
C692        C  0.17658877  0.07624660  0.35079291     0.62800
F693        F  0.07541128  0.05801413  0.28533201    -0.22400
F694        F  0.07080003  0.09962910  0.29216140    -0.19700
F695        F  0.06021404  0.07102313  0.32269303    -0.19400
F696        F  0.17734388  0.09069909  0.37277625    -0.19500
F697        F  0.19493765  0.08514078  0.33452697    -0.19800
F698        F  0.18175320  0.05119896  0.35754454    -0.22500
C699        C  0.05059139  0.07803482  0.44960438    -0.05300
C700        C  0.02483350  0.08140226  0.45280423     0.00600
C701        C  0.01221439  0.09931711  0.43724589    -0.07900
C702        C  0.02409715  0.10839178  0.41510212    -0.05300
C703        C  0.04984239  0.10443105  0.41091335     0.00600
C704        C  0.06371021  0.09111574  0.43016728    -0.07900
C705        C  0.09200352  0.09203640  0.43224872     0.62500
H706        H  0.06067575  0.06596983  0.46306521     0.13200
H707        H  0.01327637  0.11943213  0.40147483     0.13200
C708        C  0.98841905  0.11200536  0.44627601     0.62800
F709        F  0.09921474  0.09362052  0.45764377    -0.22400
F710        F  0.10179907  0.11322647  0.41985983    -0.19700
F711        F  0.10209059  0.07010554  0.42218242    -0.19400
F712        F  0.99402907  0.12643869  0.46755043    -0.19500
F713        F  0.97055045  0.09431067  0.45302067    -0.19800
F714        F  0.97831085  0.12802500  0.42776888    -0.22500
C715        C  0.11375035  0.94564713  0.31611763    -0.05300
C716        C  0.11857534  0.93686907  0.34111475     0.00600
C717        C  0.14169501  0.94332018  0.35292178    -0.07900
C718        C  0.15765046  0.96080367  0.34043797    -0.05300
C719        C  0.15179065  0.97096850  0.31624257     0.00600
C720        C  0.13003757  0.96245310  0.30335625    -0.07900
C721        C  0.12339982  0.97211406  0.27670658     0.62500
H722        H  0.09617761  0.94054076  0.30719645     0.13200
H723        H  0.17442130  0.96736695  0.35011210     0.13200
C724        C  0.15057861  0.93245918  0.37834666     0.62800
F725        F  0.10159454  0.96111863  0.26756687    -0.22400
F726        F  0.14234960  0.96617407  0.26004771    -0.19700
F727        F  0.12014161  0.99828954  0.27685372    -0.19400
F728        F  0.13499704  0.91366120  0.38794123    -0.19500
F729        F  0.15241797  0.95190697  0.39594800    -0.19800
F730        F  0.17394466  0.92176688  0.37528005    -0.22500
C731        C  0.01884720  0.86258468  0.30323423    -0.05300
C732        C  0.01249307  0.84010843  0.31643801     0.00600
C733        C  0.02498053  0.83403388  0.33962257    -0.07900
C734        C  0.04215785  0.85176247  0.34983243    -0.05300
C735        C  0.04727619  0.87511093  0.33747990     0.00600
C736        C  0.03612080  0.88028129  0.31325711    -0.07900
C737        C  0.04141768  0.90479758  0.29846241     0.62500
H738        H  0.00909711  0.86673628  0.28548797     0.13200
H739        H  0.05097468  0.84803227  0.36816867     0.13200
C740        C  0.01948089  0.80937552  0.35391828     0.62800
F741        F  0.02658615  0.90697122  0.27678275    -0.22400
F742        F  0.06598793  0.90514813  0.29069421    -0.19700
F743        F  0.03690969  0.92574761  0.31360450    -0.19400
F744        F  0.03513461  0.80612775  0.37485542    -0.19500
F745        F  0.02275517  0.78883446  0.33791995    -0.19800
F746        F  0.99515391  0.80948548  0.36242288    -0.22500
C747        C  0.03663865  0.94009658  0.45198001    -0.05300
C748        C  0.02691198  0.96482595  0.44803105     0.00600
C749        C  0.03165301  0.97733559  0.42418609    -0.07900
C750        C  0.04386265  0.96381180  0.40474792    -0.05300
C751        C  0.05238102  0.93876386  0.40840988     0.00600
C752        C  0.04965347  0.92702359  0.43271510    -0.07900
C753        C  0.06114698  0.90112418  0.43846129     0.62500
H754        H  0.03370956  0.93082584  0.47028770     0.13200
H755        H  0.04672910  0.97270175  0.38623066     0.13200
C756        C  0.02492753  0.00514511  0.41925062     0.62800
F757        F  0.08625171  0.90163950  0.43243245    -0.22400
F758        F  0.04933146  0.88250810  0.42423717    -0.19700
F759        F  0.05909888  0.89449043  0.46401796    -0.19400
F760        F  0.03320667  0.01991049  0.43937455    -0.19500
F761        F  0.99937103  0.00763013  0.41638487    -0.19800
F762        F  0.03596956  0.01462873  0.39727422    -0.22500
C763        C  0.81752787  0.94590837  0.31813130    -0.05300
C764        C  0.81400898  0.93585791  0.34279641     0.00600
C765        C  0.79167674  0.94150300  0.35599353    -0.07900
C766        C  0.77508493  0.95956948  0.34526790    -0.05300
C767        C  0.77987252  0.97130069  0.32160348     0.00600
C768        C  0.80082555  0.96364808  0.30726977    -0.07900
C769        C  0.80637239  0.97544621  0.28128721     0.62500
H770        H  0.83449771  0.94116702  0.30814367     0.13200
H771        H  0.75894305  0.96563868  0.35594959     0.13200
C772        C  0.78556220  0.92932091  0.38160540     0.62800
F773        F  0.82674380  0.96415305  0.26992139    -0.22400
F774        F  0.81146050  0.00119361  0.28384361    -0.19700
F775        F  0.78604570  0.97240311  0.26517811    -0.19400
F776        F  0.79733284  0.94254025  0.40099201    -0.19500
F777        F  0.79317928  0.90409902  0.38232306    -0.19800
F778        F  0.76010156  0.92967986  0.38595945    -0.22500
C779        C  0.91193437  0.86060230  0.30206911    -0.05300
C780        C  0.92111719  0.84008897  0.31669962     0.00600
C781        C  0.91087206  0.83486976  0.34099947    -0.07900
C782        C  0.89230822  0.85113409  0.35037025    -0.05300
C783        C  0.88426416  0.87277264  0.33656697     0.00600
C784        C  0.89372306  0.87730942  0.31160718    -0.07900
C785        C  0.88559289  0.90008668  0.29536628     0.62500
H786        H  0.92006089  0.86406099  0.28347140     0.13200
H787        H  0.88502271  0.84804410  0.36939874     0.13200
C788        C  0.92037450  0.81289283  0.35739929     0.62800
F789        F  0.90038064  0.90313792  0.27397127    -0.22400
F790        F  0.88720820  0.92237743  0.30924201    -0.19700
F791        F  0.86128509  0.89651796  0.28710286    -0.19400
F792        F  0.90674115  0.81000670  0.37960106    -0.19500
F793        F  0.94496371  0.81725799  0.36419664    -0.19800
F794        F  0.91873428  0.79037807  0.34390597    -0.22500
C795        C  0.89356996  0.95953765  0.40254469    -0.05300
C796        C  0.88313170  0.93550395  0.40726926     0.00600
C797        C  0.88541561  0.92434190  0.43185166    -0.07900
C798        C  0.89871560  0.93765807  0.45096170    -0.05300
C799        C  0.90966671  0.96181264  0.44630933     0.00600
C800        C  0.90663174  0.97309300  0.42152593    -0.07900
C801        C  0.91609204  0.99965954  0.41491285     0.62500
H802        H  0.89136551  0.96759158  0.38353185     0.13200
H803        H  0.90080068  0.92906759  0.46973882     0.13200
C804        C  0.87345813  0.89867256  0.43784942     0.62800
F805        F  0.90815228  0.00765832  0.39091988    -0.22400
F806        F  0.94190761  0.99993801  0.41503486    -0.19700
F807        F  0.90707294  0.01686318  0.43237668    -0.19400
F808        F  0.88481041  0.87978528  0.42385296    -0.19500
F809        F  0.84830871  0.89939539  0.43166784    -0.19800
F810        F  0.87567962  0.89226608  0.46346886    -0.22500
C811        C  0.88919846  0.19160427  0.35547633    -0.05300
C812        C  0.88430779  0.17159848  0.33826772     0.00600
C813        C  0.89599849  0.17226407  0.31394815    -0.07900
C814        C  0.91347456  0.19168785  0.30872338    -0.05300
C815        C  0.92005498  0.20991811  0.32693548     0.00600
C816        C  0.90717633  0.21065670  0.35030625    -0.07900
C817        C  0.91298879  0.23110114  0.36978218     0.62500
H818        H  0.88002031  0.19114213  0.37383696     0.13200
H819        H  0.92340760  0.19197874  0.29077866     0.13200
C820        C  0.89130767  0.15209007  0.29390049     0.62800
F821        F  0.89785622  0.22898819  0.39101912    -0.22400
F822        F  0.90928567  0.25494542  0.35883538    -0.19700
F823        F  0.93755564  0.22911511  0.37781778    -0.19400
F824        F  0.86711434  0.15422102  0.28489556    -0.19500
F825        F  0.89524002  0.12804591  0.30424385    -0.19800
F826        F  0.90701713  0.15487790  0.27316801    -0.22500
C827        C  0.80600638  0.06605534  0.30524855    -0.05300
C828        C  0.78345750  0.06388824  0.31844895     0.00600
C829        C  0.77849824  0.08057194  0.33884105    -0.07900
C830        C  0.79704363  0.09832799  0.34612198    -0.05300
C831        C  0.82032307  0.09940337  0.33392435     0.00600
C832        C  0.82474686  0.08331029  0.31278926    -0.07900
C833        C  0.84930321  0.08374458  0.29857030     0.62500
H834        H  0.80922684  0.05313751  0.28959764     0.13200
H835        H  0.79411945  0.11049107  0.36243170     0.13200
C836        C  0.75429795  0.07862454  0.35357363     0.62800
F837        F  0.85076489  0.06426259  0.28094721    -0.22400
F838        F  0.86911515  0.08100905  0.31544099    -0.19700
F839        F  0.85143783  0.10662823  0.28552629    -0.19400
F840        F  0.75243708  0.05474767  0.36492594    -0.19500
F841        F  0.73423075  0.08219792  0.33720322    -0.19800
F842        F  0.75298369  0.09682354  0.37250630    -0.22500
C843        C  0.89069140  0.09210061  0.44832810    -0.05300
C844        C  0.91263753  0.07789756  0.44364993     0.00600
C845        C  0.92125885  0.07684083  0.41758606    -0.07900
C846        C  0.90647157  0.08793818  0.39812402    -0.05300
C847        C  0.88482768  0.10157953  0.40309968     0.00600
C848        C  0.87707480  0.10447626  0.42855832    -0.07900
C849        C  0.85486157  0.12121754  0.43458181     0.62500
H850        H  0.88410383  0.09354836  0.46774300     0.13200
H851        H  0.91249720  0.08681604  0.37841248     0.13200
C852        C  0.94591874  0.06642104  0.40745991     0.62800
F853        F  0.85052024  0.12239175  0.46055457    -0.22400
F854        F  0.83362899  0.11171383  0.42281239    -0.19700
F855        F  0.85926244  0.14578458  0.42567725    -0.19400
F856        F  0.96201358  0.05603882  0.42512569    -0.19500
F857        F  0.95862619  0.08617567  0.39547102    -0.19800
F858        F  0.94092844  0.04795147  0.38943794    -0.22500
C859        C  0.03753181  0.18942435  0.71992070    -0.05300
C860        C  0.04171287  0.16798812  0.73587332     0.00600
C861        C  0.02967307  0.16675496  0.75996934    -0.07900
C862        C  0.01284182  0.18607128  0.76639687    -0.05300
C863        C  0.00725151  0.20612626  0.74957603     0.00600
C864        C  0.02034447  0.20859496  0.72640202    -0.07900
C865        C  0.01591019  0.23127190  0.70874883     0.62500
H866        H  0.04694701  0.19034319  0.70169955     0.13200
H867        H  0.00266538  0.18496857  0.78417995     0.13200
C868        C  0.03358337  0.14490973  0.77865551     0.62800
F869        F  0.03078534  0.23035112  0.68727796    -0.22400
F870        F  0.02135448  0.25356635  0.72163270    -0.19700
F871        F  0.99125665  0.23181923  0.70079846    -0.19400
F872        F  0.05734919  0.14672508  0.78884395    -0.19500
F873        F  0.03028234  0.12183245  0.76646091    -0.19800
F874        F  0.01694862  0.14557906  0.79875415    -0.22500
C875        C  0.13176444  0.09951538  0.72722117    -0.05300
C876        C  0.10797171  0.09881599  0.73835005     0.00600
C877        C  0.10380924  0.08229628  0.75956170    -0.07900
C878        C  0.12369589  0.06749585  0.76907826    -0.05300
C879        C  0.14709184  0.06732533  0.75728591     0.00600
C880        C  0.15138704  0.08377535  0.73610888    -0.07900
C881        C  0.17570020  0.08470564  0.72151088     0.62500
H882        H  0.13473551  0.11169881  0.71064937     0.13200
H883        H  0.12066009  0.05438067  0.78489931     0.13200
C884        C  0.07829952  0.07931029  0.77156820     0.62800
F885        F  0.17141581  0.07668609  0.69677493    -0.22400
F886        F  0.19412110  0.06954449  0.73225314    -0.19700
F887        F  0.18446125  0.10957880  0.72083239    -0.19400
F888        F  0.06045966  0.07416603  0.75307031    -0.19500
F889        F  0.07242386  0.10150675  0.78388056    -0.19800
F890        F  0.07764427  0.05966224  0.78945103    -0.22500
C891        C  0.02858758  0.10077656  0.62401423    -0.05300
C892        C  0.02132650  0.07500890  0.62666720     0.00600
C893        C  0.02679231  0.06207227  0.65008861    -0.07900
C894        C  0.03763873  0.07581304  0.67032269    -0.05300
C895        C  0.04441078  0.10159153  0.66785173     0.00600
C896        C  0.04049070  0.11422918  0.64402027    -0.07900
C897        C  0.04990424  0.14126824  0.63914927     0.62500
H898        H  0.02479674  0.11041429  0.60601991     0.13200
H899        H  0.04105948  0.06636939  0.68850526     0.13200
C900        C  0.02264662  0.03355370  0.65357409     0.62800
F901        F  0.04772886  0.14819314  0.61364396    -0.22400
F902        F  0.07484914  0.14299865  0.64595465    -0.19700
F903        F  0.03638357  0.15857090  0.65311402    -0.19400
F904        F  0.03263915  0.02075396  0.63310342    -0.19500
F905        F  0.99744071  0.02828587  0.65536293    -0.19800
F906        F  0.03412265  0.02424551  0.67552943    -0.22500
C907        C  0.88809605  0.18814827  0.71362396    -0.05300
C908        C  0.88315668  0.16585354  0.72789656     0.00600
C909        C  0.89503918  0.16226676  0.75200393    -0.07900
C910        C  0.91156835  0.18120835  0.76086005    -0.05300
C911        C  0.91719354  0.20294832  0.74616005     0.00600
C912        C  0.90524827  0.20668764  0.72224580    -0.07900
C913        C  0.91123796  0.22980050  0.70570707     0.62500
H914        H  0.87921960  0.19032148  0.69508050     0.13200
H915        H  0.92131200  0.17861817  0.77889760     0.13200
C916        C  0.89140359  0.13804666  0.76782582     0.62800
F917        F  0.93594172  0.22906601  0.69832531    -0.22400
F918        F  0.90716676  0.25184531  0.71936465    -0.19700
F919        F  0.89653278  0.23069411  0.68386367    -0.19400
F920        F  0.89528105  0.11671526  0.75299916    -0.19500
F921        F  0.86748411  0.13739754  0.77744423    -0.19800
F922        F  0.90787635  0.13680258  0.78829524    -0.22500
C923        C  0.81746965  0.09627281  0.75690355    -0.05300
C924        C  0.81364336  0.10178621  0.73082036     0.00600
C925        C  0.79119076  0.09341072  0.71895042    -0.07900
C926        C  0.77522453  0.07689366  0.73255222    -0.05300
C927        C  0.78014016  0.06980062  0.75796385     0.00600
C928        C  0.80093503  0.08059471  0.77081955    -0.07900
C929        C  0.80629964  0.07455621  0.79875811     0.62500
H930        H  0.83443516  0.10300415  0.76595431     0.13200
H931        H  0.75922423  0.06856137  0.72288408     0.13200
C932        C  0.78336855  0.10084653  0.69204659     0.62800
F933        F  0.82721509  0.08742750  0.80763151    -0.22400
F934        F  0.81030625  0.04866472  0.80208583    -0.19700
F935        F  0.78623890  0.08182756  0.81341440    -0.19400
F936        F  0.78600045  0.08002542  0.67628706    -0.19500
F937        F  0.79708681  0.12110996  0.68240336    -0.19800
F938        F  0.75854194  0.10809378  0.69192357    -0.22500
C939        C  0.90448716  0.08966585  0.66650162    -0.05300
C940        C  0.87981017  0.09768620  0.66248559     0.00600
C941        C  0.86904487  0.09529158  0.63780227    -0.07900
C942        C  0.88309443  0.08389427  0.61826637    -0.05300
C943        C  0.90769275  0.07536671  0.62237179     0.00600
C944        C  0.91887492  0.07907700  0.64688855    -0.07900
C945        C  0.94617509  0.07312582  0.65239054     0.62500
H946        H  0.91258272  0.09214384  0.68533870     0.13200
H947        H  0.87473701  0.08126825  0.59958261     0.13200
C948        C  0.84301620  0.10509840  0.63189508     0.62800
F949        F  0.95414092  0.08302443  0.67549533    -0.22400
F950        F  0.96094705  0.08380082  0.63351926    -0.19700
F951        F  0.94964116  0.04699778  0.65346435    -0.19400
F952        F  0.84063242  0.12996962  0.64018129    -0.19500
F953        F  0.82562876  0.08981390  0.64399566    -0.19800
F954        F  0.83782325  0.10485161  0.60596454    -0.22500
C955        C  0.89243681  0.85933889  0.73118856    -0.05300
C956        C  0.89277856  0.88329491  0.74299369     0.00600
C957        C  0.90807881  0.88711336  0.76488787    -0.07900
C958        C  0.92358331  0.86708341  0.77322764    -0.05300
C959        C  0.92438007  0.84376491  0.76039888     0.00600
C960        C  0.90797562  0.83930997  0.73964070    -0.07900
C961        C  0.90712624  0.81371228  0.72636416     0.62500
H962        H  0.88034195  0.85673746  0.71474200     0.13200
H963        H  0.93629102  0.86984947  0.78915565     0.13200
C964        C  0.90905687  0.91240477  0.77875568     0.62800
F965        F  0.89057842  0.81385795  0.70592022    -0.22400
F966        F  0.89946594  0.79502543  0.74342351    -0.19700
F967        F  0.93050575  0.80759119  0.71731525    -0.19400
F968        F  0.88613191  0.91728179  0.78950459    -0.19500
F969        F  0.91520482  0.93180397  0.76183910    -0.19800
F970        F  0.92669469  0.91233404  0.79824530    -0.22500
C971        C  0.79983538  0.94675181  0.73251207    -0.05300
C972        C  0.82438948  0.94849994  0.74203551     0.00600
C973        C  0.82954237  0.96480279  0.76296546    -0.07900
C974        C  0.80971160  0.97771120  0.77430588    -0.05300
C975        C  0.78569684  0.97764752  0.76357488     0.00600
C976        C  0.78040998  0.96172608  0.74249915    -0.07900
C977        C  0.75469929  0.96131458  0.73011891     0.62500
H978        H  0.79628269  0.93440363  0.71640640     0.13200
H979        H  0.81365083  0.99058442  0.78996442     0.13200
C980        C  0.85548694  0.97145656  0.77286795     0.62800
F981        F  0.74817711  0.98562157  0.72201544    -0.22400
F982        F  0.73729523  0.95259131  0.74750179    -0.19700
F983        F  0.75386903  0.94541518  0.70916153    -0.19400
F984        F  0.87449718  0.96181809  0.75828699    -0.19500
F985        F  0.85810482  0.96238025  0.79761772    -0.19800
F986        F  0.85832511  0.99774593  0.77295371    -0.22500
C987        C  0.88552380  0.92928343  0.64767711    -0.05300
C988        C  0.88417764  0.94452983  0.66956801     0.00600
C989        C  0.89407300  0.96964061  0.66875302    -0.07900
C990        C  0.90438293  0.97879375  0.64578768    -0.05300
C991        C  0.90612993  0.96362042  0.62377446     0.00600
C992        C  0.89646784  0.93827355  0.62473473    -0.07900
C993        C  0.89848186  0.92036950  0.60223091     0.62500
H994        H  0.87817070  0.91002065  0.64888829     0.13200
H995        H  0.91162573  0.99811574  0.64502545     0.13200
C996        C  0.89502743  0.98636666  0.69236772     0.62800
F997        F  0.88984770  0.89607202  0.60812699    -0.22400
F998        F  0.92317380  0.91834020  0.59499680    -0.19700
F999        F  0.88439496  0.92960127  0.58195798    -0.19400
F1000       F  0.90673438  0.97336587  0.71219077    -0.19500
F1001       F  0.87119806  0.99293338  0.69966180    -0.19800
F1002       F  0.90814818  0.00880596  0.68805464    -0.22500
C1003       C  0.12809986  0.97102359  0.76972633    -0.05300
C1004       C  0.14978397  0.97581366  0.75568948     0.00600
C1005       C  0.15351687  0.96321240  0.73228780    -0.07900
C1006       C  0.13463522  0.94678955  0.72312221    -0.05300
C1007       C  0.11223370  0.94310648  0.73652252     0.00600
C1008       C  0.10891066  0.95527084  0.76035609    -0.07900
C1009       C  0.08462703  0.95318789  0.77509020     0.62500
H1010       H  0.12561883  0.98129070  0.78738418     0.13200
H1011       H  0.13675571  0.93746793  0.70489704     0.13200
C1012       C  0.17715311  0.96755815  0.71705382     0.62800
F1013       F  0.08422490  0.96960291  0.79565415    -0.22400
F1014       F  0.08165412  0.92863189  0.78444397    -0.19700
F1015       F  0.06465739  0.95931588  0.75932177    -0.19400
F1016       F  0.19763614  0.96078433  0.73182230    -0.19500
F1017       F  0.17922603  0.99300786  0.71006408    -0.19800
F1018       F  0.17738609  0.95313052  0.69504063    -0.22500
C1019       C  0.02445148  0.83301603  0.73370327    -0.05300
C1020       C  0.01440654  0.83743090  0.75791586     0.00600
C1021       C  0.02314181  0.85842652  0.77237839    -0.07900
C1022       C  0.04034821  0.87548206  0.76121650    -0.05300
C1023       C  0.04886268  0.87220857  0.73616720     0.00600
C1024       C  0.04215734  0.84972672  0.72282776    -0.07900
C1025       C  0.05269129  0.84293120  0.69695995     0.62500
H1026       H  0.01769700  0.81687691  0.72279372     0.13200
H1027       H  0.04572926  0.89265144  0.77124469     0.13200
C1028       C  0.01292234  0.86379213  0.79877710     0.62800
F1029       F  0.06026150  0.81769881  0.69732633    -0.22400
F1030       F  0.07319696  0.85767076  0.69043615    -0.19700
F1031       F  0.03438647  0.84601717  0.67844427    -0.19400
F1032       F  0.02472114  0.88443459  0.81001187    -0.19500
F1033       F  0.01645073  0.84277060  0.81453400    -0.19800
F1034       F  0.98769664  0.86910144  0.79711577    -0.22500
C1035       C  0.05718427  0.93766244  0.64454356    -0.05300
C1036       C  0.04636637  0.94022279  0.66862258     0.00600
C1037       C  0.02415395  0.95437788  0.67110227    -0.07900
C1038       C  0.01277098  0.96454452  0.64899854    -0.05300
C1039       C  0.02328237  0.96201856  0.62450170     0.00600
C1040       C  0.04633651  0.94856219  0.62234763    -0.07900
C1041       C  0.06011268  0.94609097  0.59722430     0.62500
H1042       H  0.07442360  0.92700734  0.64337830     0.13200
H1043       H  0.99537043  0.97473900  0.65092525     0.13200
C1044       C  0.01283070  0.95922420  0.69711458     0.62800
F1045       F  0.08298890  0.93418135  0.60031128    -0.22400
F1046       F  0.06456322  0.97011075  0.58698614    -0.19700
F1047       F  0.04614359  0.93167132  0.58031657    -0.19400
F1048       F  0.03054942  0.97007539  0.71304438    -0.19500
F1049       F  0.00463850  0.93648314  0.70777565    -0.19800
F1050       F  0.99271077  0.97571349  0.69557093    -0.22500
C1051       C  0.24321891  0.09591283  0.17841604    -0.05300
C1052       C  0.26808828  0.10346324  0.18246078     0.00600
C1053       C  0.28014752  0.09635628  0.20565326    -0.07900
C1054       C  0.26802112  0.07894357  0.22219332    -0.05300
C1055       C  0.24400622  0.06943483  0.21677712     0.00600
C1056       C  0.23076140  0.07928278  0.19527545    -0.07900
C1057       C  0.20382401  0.07284446  0.18861589     0.62500
H1058       H  0.23368745  0.10210560  0.16113243     0.13200
H1059       H  0.27774816  0.07159152  0.23890715     0.13200
C1060       C  0.30528241  0.10753910  0.21330164     0.62800
F1061       F  0.18987169  0.09501036  0.18927744    -0.22400
F1062       F  0.19301741  0.05533413  0.20501296    -0.19700
F1063       F  0.20259139  0.06308768  0.16418840    -0.19400
F1064       F  0.30470648  0.13382602  0.21047837    -0.19500
F1065       F  0.32405568  0.09783487  0.19836302    -0.19800
F1066       F  0.31108824  0.10197478  0.23855159    -0.22500
C1067       C  0.27726021  0.19351315  0.10904116    -0.05300
C1068       C  0.26495213  0.17012834  0.11341419     0.00600
C1069       C  0.24083404  0.16617684  0.10255439    -0.07900
C1070       C  0.23042653  0.18546405  0.08692593    -0.05300
C1071       C  0.24353618  0.20792075  0.08108464     0.00600
C1072       C  0.26697400  0.21247573  0.09281565    -0.07900
C1073       C  0.28135165  0.23686025  0.08725423     0.62500
H1074       H  0.29560621  0.19625853  0.11743269     0.13200
H1075       H  0.21262829  0.18238211  0.07746915     0.13200
C1076       C  0.22668579  0.14115841  0.10588543     0.62800
F1077       F  0.30254350  0.23885655  0.10240747    -0.22400
F1078       F  0.26636133  0.25773763  0.09189124    -0.19700
F1079       F  0.28859088  0.23741297  0.06197775    -0.19400
F1080       F  0.21891137  0.13854591  0.13084432    -0.19500
F1081       F  0.24181599  0.12082394  0.09968360    -0.19800
F1082       F  0.20566813  0.14009308  0.09036073    -0.22500
C1083       C  0.37733413  0.10190804  0.10201249    -0.05300
C1084       C  0.37414811  0.07675146  0.09327803     0.00600
C1085       C  0.35028024  0.06486456  0.09629683    -0.07900
C1086       C  0.33049287  0.07914394  0.10652156    -0.05300
C1087       C  0.33364534  0.10437594  0.11471783     0.00600
C1088       C  0.35763688  0.11579414  0.11305025    -0.07900
C1089       C  0.36271344  0.14216588  0.12372786     0.62500
H1090       H  0.39549554  0.11079796  0.09997702     0.13200
H1091       H  0.31217096  0.07055620  0.10847013     0.13200
C1092       C  0.34558753  0.03691649  0.09001340     0.62800
F1093       F  0.38785762  0.14834324  0.12304174    -0.22400
F1094       F  0.35513022  0.14304861  0.14889476    -0.19700
F1095       F  0.34988998  0.16035244  0.10962049    -0.19400
F1096       F  0.36401032  0.02192084  0.10106289    -0.19500
F1097       F  0.34532573  0.03359184  0.06385082    -0.19800
F1098       F  0.32287395  0.02833910  0.09928980    -0.22500
C1099       C  0.24558529  0.95491520  0.17302831    -0.05300
C1100       C  0.26757134  0.94196749  0.17974747     0.00600
C1101       C  0.27732304  0.94438897  0.20481304    -0.07900
C1102       C  0.26627805  0.96209138  0.22154465    -0.05300
C1103       C  0.24527094  0.97646908  0.21408805     0.00600
C1104       C  0.23405259  0.97191374  0.18992296    -0.07900
C1105       C  0.21011470  0.98533577  0.18193598     0.62500
H1106       H  0.23797106  0.95223501  0.15401676     0.13200
H1107       H  0.27446784  0.96547015  0.24018088     0.13200
C1108       C  0.29907481  0.92801268  0.21366830     0.62800
F1109       F  0.20104968  0.97651164  0.15882105    -0.22400
F1110       F  0.21426899  0.01126639  0.17940716    -0.19700
F1111       F  0.19200792  0.98109641  0.20019861    -0.19400
F1112       F  0.32036350  0.93467223  0.20038817    -0.19500
F1113       F  0.29362444  0.90255556  0.20931448    -0.19800
F1114       F  0.30388446  0.93083218  0.23948519    -0.22500
C1115       C  0.26194045  0.82951735  0.09496951    -0.05300
C1116       C  0.23732801  0.83505245  0.08727363     0.00600
C1117       C  0.22560711  0.85706772  0.09710189    -0.07900
C1118       C  0.23978498  0.87411147  0.11187493    -0.05300
C1119       C  0.26513216  0.86992656  0.11751386     0.00600
C1120       C  0.27602665  0.84637298  0.11028708    -0.07900
C1121       C  0.30256789  0.83903821  0.11752955     0.62500
H1122       H  0.27083613  0.81277551  0.08717030     0.13200
H1123       H  0.23116678  0.89175255  0.11788074     0.13200
C1124       C  0.19874548  0.86450467  0.09162824     0.62800
F1125       F  0.30546895  0.81276221  0.11743047    -0.22400
F1126       F  0.30847878  0.84744081  0.14179747    -0.19700
F1127       F  0.31912634  0.84947138  0.10018906    -0.19400
F1128       F  0.18566714  0.84646193  0.07788767    -0.19500
F1129       F  0.19833675  0.88728852  0.07806475    -0.19800
F1130       F  0.18654944  0.86788878  0.11454449    -0.22500
C1131       C  0.35297835  0.96257381  0.08054776    -0.05300
C1132       C  0.37699490  0.95937938  0.09152240     0.00600
C1133       C  0.37918393  0.94353981  0.11383974    -0.07900
C1134       C  0.35744960  0.93220465  0.12419186    -0.05300
C1135       C  0.33380373  0.93579948  0.11320690     0.00600
C1136       C  0.33143408  0.95108766  0.09094826    -0.07900
C1137       C  0.30616955  0.95521610  0.07822723     0.62500
H1138       H  0.35102873  0.97418707  0.06345182     0.13200
H1139       H  0.35862248  0.92046480  0.14129620     0.13200
C1140       C  0.40391831  0.93892371  0.12744155     0.62800
F1141       F  0.30745771  0.97262664  0.05820694    -0.22400
F1142       F  0.28930839  0.96438463  0.09575645    -0.19700
F1143       F  0.29743359  0.93232223  0.06866980    -0.19400
F1144       F  0.41401391  0.96201086  0.13489724    -0.19500
F1145       F  0.42016322  0.92645015  0.11142677    -0.19800
F1146       F  0.40125803  0.92390634  0.14916582    -0.22500
C1147       C  0.27612813  0.94481656  0.87049130    -0.05300
C1148       C  0.26444257  0.94086030  0.89415919     0.00600
C1149       C  0.24155564  0.95343405  0.89918937    -0.07900
C1150       C  0.23189878  0.97053388  0.88074495    -0.05300
C1151       C  0.24436664  0.97559521  0.85781177     0.00600
C1152       C  0.26642527  0.96209960  0.85214764    -0.07900
C1153       C  0.28000842  0.96677178  0.82722744     0.62500
H1154       H  0.29358011  0.93511536  0.86700526     0.13200
H1155       H  0.21510950  0.98124691  0.88462740     0.13200
C1156       C  0.22791105  0.94990412  0.92435120     0.62800
F1157       F  0.28807363  0.99185943  0.82586856    -0.22400
F1158       F  0.26406862  0.96202920  0.80692363    -0.19700
F1159       F  0.30058051  0.95105922  0.82492681    -0.19400
F1160       F  0.24391400  0.95452899  0.94464606    -0.19500
F1161       F  0.21874964  0.92527414  0.92619084    -0.19800
F1162       F  0.20787958  0.96638365  0.92635123    -0.22500
C1163       C  0.24276668  0.87977833  0.97148878    -0.05300
C1164       C  0.26595639  0.87284708  0.96143110     0.00600
C1165       C  0.27532755  0.84794754  0.96622794    -0.07900
C1166       C  0.26216619  0.83167283  0.98304434    -0.05300
C1167       C  0.23989885  0.83944790  0.99448826     0.00600
C1168       C  0.22941481  0.86339526  0.98783715    -0.07900
C1169       C  0.20437163  0.87170080  0.99828481     0.62500
H1170       H  0.23565299  0.89868689  0.96723128     0.13200
H1171       H  0.26982249  0.81325265  0.98842533     0.13200
C1172       C  0.29914079  0.83865565  0.95399537     0.62800
F1173       F  0.19703928  0.89513549  0.98836977    -0.22400
F1174       F  0.20562237  0.87377763  0.02453740    -0.19700
F1175       F  0.18633569  0.85385990  0.99192087    -0.19400
F1176       F  0.31953001  0.85051450  0.96507697    -0.19500
F1177       F  0.29869510  0.84410419  0.92809984    -0.19800
F1178       F  0.30192112  0.81250194  0.95699971    -0.22500
C1179       C  0.35714063  0.92924375  0.95424358    -0.05300
C1180       C  0.33340738  0.93928109  0.95885036     0.00600
C1181       C  0.33113247  0.96098978  0.97444947    -0.07900
C1182       C  0.35296867  0.97261576  0.98401570    -0.05300
C1183       C  0.37715873  0.96289757  0.97943589     0.00600
C1184       C  0.37912475  0.94038153  0.96441981    -0.07900
C1185       C  0.40394735  0.92760498  0.95929392     0.62500
H1186       H  0.35822957  0.91241780  0.94245000     0.13200
H1187       H  0.35102529  0.98954162  0.99548993     0.13200
C1188       C  0.30567240  0.97135944  0.98166136     0.62800
F1189       F  0.40106585  0.90521167  0.94572298    -0.22400
F1190       F  0.41560251  0.92148393  0.98218828    -0.19700
F1191       F  0.41894557  0.94380450  0.94507637    -0.19400
F1192       F  0.29202773  0.95242598  0.99384216    -0.19500
F1193       F  0.29287702  0.97939149  0.96004793    -0.19800
F1194       F  0.30756156  0.99192166  0.99801018    -0.22500
C1195       C  0.27649422  0.19329468  0.96070278    -0.05300
C1196       C  0.26385213  0.17028914  0.95591457     0.00600
C1197       C  0.23949875  0.16636037  0.96595147    -0.07900
C1198       C  0.22982524  0.18479840  0.98245009    -0.05300
C1199       C  0.24349435  0.20667591  0.98883388     0.00600
C1200       C  0.26649196  0.21180907  0.97686889    -0.07900
C1201       C  0.28142397  0.23564991  0.98281759     0.62500
H1202       H  0.29498191  0.19602574  0.95284759     0.13200
H1203       H  0.21202337  0.18168598  0.99167847     0.13200
C1204       C  0.22410821  0.14250821  0.96042880     0.62800
F1205       F  0.29366258  0.23244264  0.00594494    -0.22400
F1206       F  0.26587080  0.25662369  0.98413567    -0.19700
F1207       F  0.29893113  0.24060158  0.96408514    -0.19400
F1208       F  0.23786421  0.12077960  0.96577280    -0.19500
F1209       F  0.21679646  0.14252372  0.93507705    -0.19800
F1210       F  0.20264463  0.14139544  0.97498246    -0.22500
C1211       C  0.26699621  0.08018112  0.85063231    -0.05300
C1212       C  0.24432082  0.06830750  0.85709925     0.00600
C1213       C  0.23214053  0.07506886  0.87993288    -0.07900
C1214       C  0.24441323  0.09152262  0.89694258    -0.05300
C1215       C  0.26803960  0.10175274  0.89149230     0.00600
C1216       C  0.27878572  0.09754812  0.86730197    -0.07900
C1217       C  0.30191373  0.11208509  0.85892902     0.62500
H1218       H  0.27576556  0.07508447  0.83283466     0.13200
H1219       H  0.23609219  0.09571951  0.91520842     0.13200
C1220       C  0.20669064  0.06416005  0.88668137     0.62800
F1221       F  0.30856627  0.10615286  0.83420153    -0.22400
F1222       F  0.32188334  0.10642454  0.87480800    -0.19700
F1223       F  0.29722123  0.13802770  0.85984950    -0.19400
F1224       F  0.20824630  0.03800347  0.89008824    -0.19500
F1225       F  0.18986289  0.06949445  0.86722512    -0.19800
F1226       F  0.19749501  0.07454694  0.90891332    -0.22500
C1227       C  0.35578097  0.10517664  0.94706541    -0.05300
C1228       C  0.33340181  0.10650091  0.96073996     0.00600
C1229       C  0.33263668  0.09635514  0.98597073    -0.07900
C1230       C  0.35431219  0.08482581  0.99629400    -0.05300
C1231       C  0.37678574  0.08320808  0.98255578     0.00600
C1232       C  0.37758289  0.09394602  0.95747605    -0.07900
C1233       C  0.40091602  0.09299495  0.94123040     0.62500
H1234       H  0.35594812  0.11308835  0.92788089     0.13200
H1235       H  0.35387095  0.07705472  0.01552911     0.13200
C1236       C  0.30909343  0.09725041  0.00200752     0.62800
F1237       F  0.39676036  0.10249386  0.91680712    -0.22400
F1238       F  0.40882107  0.06799776  0.93910611    -0.19700
F1239       F  0.41956591  0.10761952  0.95222806    -0.19400
F1240       F  0.28868939  0.08905732  0.98792876    -0.19500
F1241       F  0.30504575  0.12191165  0.01011149    -0.19800
F1242       F  0.31095873  0.08173474  0.02350137    -0.22500
C1243       C  0.68374083  0.15390188  0.10434802    -0.05300
C1244       C  0.66191578  0.16219407  0.11628467     0.00600
C1245       C  0.65463759  0.18808817  0.11394598    -0.07900
C1246       C  0.66869167  0.20452601  0.09809886    -0.05300
C1247       C  0.68951485  0.19566609  0.08477124     0.00600
C1248       C  0.69767695  0.17019096  0.08845608    -0.07900
C1249       C  0.72045587  0.15999972  0.07477784     0.62500
H1250       H  0.68915265  0.13411102  0.10667993     0.13200
H1251       H  0.66254752  0.22394533  0.09460728     0.13200
C1252       C  0.63179380  0.19807235  0.12748033     0.62800
F1253       F  0.71599571  0.15906879  0.04877348    -0.22400
F1254       F  0.72657571  0.13560170  0.08303818    -0.19700
F1255       F  0.74072715  0.17575962  0.07938245    -0.19400
F1256       F  0.63281649  0.19141880  0.15309241    -0.19500
F1257       F  0.61049179  0.18772837  0.11663390    -0.19800
F1258       F  0.63019949  0.22442026  0.12570615    -0.22500
C1259       C  0.65229572  0.09683540  0.21050337    -0.05300
C1260       C  0.66170064  0.09692854  0.18554581     0.00600
C1261       C  0.68258624  0.08146294  0.17965876    -0.07900
C1262       C  0.69324621  0.06642747  0.19912365    -0.05300
C1263       C  0.68277621  0.06495716  0.22348390     0.00600
C1264       C  0.66234848  0.08071462  0.22964790    -0.07900
C1265       C  0.65096926  0.07997169  0.25607078     0.62500
H1266       H  0.63634333  0.10874522  0.21454733     0.13200
H1267       H  0.70864128  0.05381626  0.19493257     0.13200
C1268       C  0.69227267  0.07883328  0.15259302     0.62800
F1269       F  0.63045988  0.09587676  0.25768886    -0.22400
F1270       F  0.66850859  0.08785101  0.27383585    -0.19700
F1271       F  0.64331976  0.05541045  0.26210042    -0.19400
F1272       F  0.70173040  0.10183593  0.14389859    -0.19500
F1273       F  0.67310695  0.07106465  0.13670287    -0.19800
F1274       F  0.71113044  0.06088932  0.15107178    -0.22500
C1275       C  0.56973485  0.11436156  0.11805449    -0.05300
C1276       C  0.59101120  0.09944075  0.12314907     0.00600
C1277       C  0.59095568  0.07338041  0.11574979    -0.07900
C1278       C  0.56908673  0.06293538  0.10505827    -0.05300
C1279       C  0.54778037  0.07773858  0.09999573     0.00600
C1280       C  0.54821558  0.10409131  0.10614059    -0.07900
C1281       C  0.52661092  0.12155830  0.09916759     0.62500
H1282       H  0.57026841  0.13433825  0.12320997     0.13200
H1283       H  0.56867633  0.04294486  0.09992513     0.13200
C1284       C  0.61434133  0.05700513  0.11699360     0.62800
F1285       F  0.53243784  0.14698170  0.10319716    -0.22400
F1286       F  0.50614746  0.11541813  0.11395819    -0.19700
F1287       F  0.52051227  0.11888400  0.07359549    -0.19400
F1288       F  0.62018955  0.05067866  0.14198129    -0.19500
F1289       F  0.63399275  0.07018402  0.10603476    -0.19800
F1290       F  0.61137560  0.03441135  0.10377491    -0.22500
C1291       C  0.70078938  0.17844339  0.98574959    -0.05300
C1292       C  0.68776634  0.20033182  0.99287217     0.00600
C1293       C  0.66409710  0.20558430  0.98207526    -0.07900
C1294       C  0.65363698  0.18795469  0.96494533    -0.05300
C1295       C  0.66584262  0.16503563  0.95919204     0.00600
C1296       C  0.69008081  0.16026067  0.96941735    -0.07900
C1297       C  0.70406075  0.13550046  0.96468780     0.62500
H1298       H  0.71878206  0.17487346  0.99464986     0.13200
H1299       H  0.63513211  0.19115962  0.95709662     0.13200
C1300       C  0.64965804  0.22915852  0.98964957     0.62800
F1301       F  0.72494345  0.13317194  0.98027842    -0.22400
F1302       F  0.71203572  0.13488222  0.93968906    -0.19700
F1303       F  0.68879048  0.11467575  0.96953482    -0.19400
F1304       F  0.66408009  0.25069308  0.98527355    -0.19500
F1305       F  0.64371791  0.22779681  0.01528103    -0.19800
F1306       F  0.62766660  0.23163520  0.97581894    -0.22500
C1307       C  0.68427230  0.09092879  0.89445803    -0.05300
C1308       C  0.65978450  0.09984322  0.89084409     0.00600
C1309       C  0.64703264  0.09445102  0.86766515    -0.07900
C1310       C  0.65817782  0.07767680  0.85030425    -0.05300
C1311       C  0.68194203  0.06734852  0.85487934     0.00600
C1312       C  0.69572410  0.07488470  0.87673122    -0.07900
C1313       C  0.72193614  0.06493928  0.88195642     0.62500
H1314       H  0.69392005  0.09554475  0.91206553     0.13200
H1315       H  0.64789956  0.07192593  0.83338104     0.13200
C1316       C  0.62205884  0.10596146  0.86004529     0.62800
F1317       F  0.73214063  0.07512168  0.90400029    -0.22400
F1318       F  0.73740609  0.07151845  0.86193156    -0.19700
F1319       F  0.72149324  0.03865150  0.88471538    -0.19400
F1320       F  0.61318250  0.12335978  0.87740946    -0.19500
F1321       F  0.60457150  0.08667728  0.85729686    -0.19800
F1322       F  0.62461797  0.11860882  0.83689492    -0.22500
C1323       C  0.57459590  0.07990192  0.99481960    -0.05300
C1324       C  0.55115833  0.08157254  0.98227353     0.00600
C1325       C  0.55015878  0.09395867  0.95788823    -0.07900
C1326       C  0.57231653  0.10432634  0.94751344    -0.05300
C1327       C  0.59542122  0.10224495  0.96006704     0.00600
C1328       C  0.59678225  0.08942546  0.98393343    -0.07900
C1329       C  0.62172205  0.08447441  0.99717708     0.62500
H1330       H  0.57564130  0.07052479  0.01329710     0.13200
H1331       H  0.57191369  0.11402581  0.92915342     0.13200
C1332       C  0.52631938  0.09552567  0.94213485     0.62800
F1333       F  0.61902332  0.06999643  0.01925753    -0.22400
F1334       F  0.63303429  0.10721654  0.00384457    -0.19700
F1335       F  0.63721312  0.07132467  0.98091886    -0.19400
F1336       F  0.50888292  0.11017411  0.95460746    -0.19500
F1337       F  0.51702816  0.07119785  0.93824092    -0.19800
F1338       F  0.53025259  0.10661224  0.91838066    -0.22500
C1339       C  0.68418929  0.88158389  0.97140518    -0.05300
C1340       C  0.66027089  0.87592731  0.96184938     0.00600
C1341       C  0.64955650  0.85164982  0.96689357    -0.07900
C1342       C  0.66223159  0.83472100  0.98354143    -0.05300
C1343       C  0.68524489  0.84130431  0.99467113     0.00600
C1344       C  0.69694469  0.86464714  0.98782015    -0.07900
C1345       C  0.72221617  0.87218291  0.99885852     0.62500
H1346       H  0.69225340  0.90007284  0.96694717     0.13200
H1347       H  0.65364442  0.81677969  0.98912738     0.13200
C1348       C  0.62498654  0.84368494  0.95475270     0.62800
F1349       F  0.73061430  0.89521860  0.98888857    -0.22400
F1350       F  0.73969653  0.85375881  0.99324719    -0.19700
F1351       F  0.72063509  0.87457308  0.02506351    -0.19400
F1352       F  0.62626742  0.84694271  0.92855267    -0.19500
F1353       F  0.60574541  0.85830573  0.96406881    -0.19800
F1354       F  0.61949625  0.81827994  0.95979185    -0.22500
C1355       C  0.64993620  0.94646678  0.87007507    -0.05300
C1356       C  0.66264004  0.94211620  0.89326599     0.00600
C1357       C  0.68666140  0.95308418  0.89714526    -0.07900
C1358       C  0.69640887  0.96931171  0.87810988    -0.05300
C1359       C  0.68285021  0.97513998  0.85586285     0.00600
C1360       C  0.65969369  0.96296184  0.85121632    -0.07900
C1361       C  0.64515790  0.96814547  0.82676699     0.62500
H1362       H  0.63168080  0.93787757  0.86745322     0.13200
H1363       H  0.71405284  0.97902960  0.88115323     0.13200
C1364       C  0.70136740  0.94908281  0.92182110     0.62800
F1365       F  0.62398727  0.95299791  0.82504794    -0.22400
F1366       F  0.66008206  0.96309071  0.80599239    -0.19700
F1367       F  0.63783303  0.99342753  0.82573891    -0.19400
F1368       F  0.70877407  0.92391159  0.92392842    -0.19500
F1369       F  0.68685838  0.95529479  0.94258324    -0.19800
F1370       F  0.72267581  0.96410066  0.92263606    -0.22500
C1371       C  0.57277367  0.94505382  0.94536080    -0.05300
C1372       C  0.59548975  0.94517276  0.95881207     0.00600
C1373       C  0.59735849  0.95909021  0.98173906    -0.07900
C1374       C  0.57563249  0.97020779  0.99177702    -0.05300
C1375       C  0.55231565  0.96936856  0.97893516     0.00600
C1376       C  0.55131246  0.95754544  0.95450472    -0.07900
C1377       C  0.52836864  0.95888694  0.93735696     0.62500
H1378       H  0.57208894  0.93512381  0.92732102     0.13200
H1379       H  0.57691172  0.97975762  0.00997412     0.13200
C1380       C  0.62240042  0.96321219  0.99491430     0.62800
F1381       F  0.53315961  0.94990573  0.91309503    -0.22400
F1382       F  0.52067530  0.98398919  0.93483050    -0.19700
F1383       F  0.50937795  0.94417699  0.94755715    -0.19400
F1384       F  0.63934043  0.97320616  0.97765446    -0.19500
F1385       F  0.63139274  0.94036068  0.00457191    -0.19800
F1386       F  0.62060835  0.98019612  0.01486462    -0.22500
C1387       C  0.68331293  0.94877851  0.18534916    -0.05300
C1388       C  0.65846029  0.94056218  0.18812479     0.00600
C1389       C  0.64537095  0.94697443  0.21063513    -0.07900
C1390       C  0.65681486  0.96352065  0.22825265    -0.05300
C1391       C  0.68107257  0.97295960  0.22461747     0.00600
C1392       C  0.69490138  0.96495431  0.20318173    -0.07900
C1393       C  0.72127156  0.97463808  0.19835282     0.62500
H1394       H  0.69312767  0.94371347  0.16815550     0.13200
H1395       H  0.64631560  0.96997890  0.24458193     0.13200
C1396       C  0.61935320  0.93738473  0.21693123     0.62800
F1397       F  0.73112515  0.96477576  0.17617042    -0.22400
F1398       F  0.73672656  0.96748775  0.21839502    -0.19700
F1399       F  0.72133507  0.00096582  0.19606028    -0.19400
F1400       F  0.61114760  0.91825796  0.20089692    -0.19500
F1401       F  0.60279223  0.95755677  0.21547443    -0.19800
F1402       F  0.61926895  0.92756951  0.24155620    -0.22500
C1403       C  0.69685407  0.86349539  0.09046794    -0.05300
C1404       C  0.68529892  0.83973791  0.08687505     0.00600
C1405       C  0.66325929  0.83365548  0.10044519    -0.07900
C1406       C  0.65252228  0.85249715  0.11582593    -0.05300
C1407       C  0.66329001  0.87684766  0.11813277     0.00600
C1408       C  0.68607560  0.88240808  0.10561589    -0.07900
C1409       C  0.69824616  0.90863038  0.10693474     0.62500
H1410       H  0.71359305  0.86772798  0.07971455     0.13200
H1411       H  0.63511279  0.84843578  0.12551811     0.13200
C1412       C  0.64988010  0.80816775  0.09862076     0.62800
F1413       F  0.71835336  0.91081733  0.09058646    -0.22400
F1414       F  0.70684342  0.91295341  0.13143962    -0.19700
F1415       F  0.68118632  0.92730174  0.10014653    -0.19400
F1416       F  0.64595472  0.79849859  0.12295463    -0.19500
F1417       F  0.66319597  0.79021797  0.08522336    -0.19800
F1418       F  0.62701754  0.81166781  0.08668952    -0.22500
C1419       C  0.57489798  0.96618938  0.08392993    -0.05300
C1420       C  0.55104540  0.96361463  0.09505225     0.00600
C1421       C  0.54909685  0.94955014  0.11846339    -0.07900
C1422       C  0.57079018  0.93840612  0.12923408    -0.05300
C1423       C  0.59424060  0.94090529  0.11781576     0.00600
C1424       C  0.59652775  0.95545793  0.09506448    -0.07900
C1425       C  0.62159448  0.95960605  0.08224912     0.62500
H1426       H  0.57665932  0.97660557  0.06606708     0.13200
H1427       H  0.56968596  0.92748571  0.14686295     0.13200
C1428       C  0.52463707  0.94666608  0.13268517     0.62800
F1429       F  0.62094744  0.98048687  0.06588348    -0.22400
F1430       F  0.62765457  0.93820145  0.06837358    -0.19700
F1431       F  0.64016060  0.96419304  0.10013377    -0.19400
F1432       F  0.50796553  0.93238075  0.11840632    -0.19500
F1433       F  0.51478870  0.97052688  0.13735718    -0.19800
F1434       F  0.52773820  0.93436327  0.15601113    -0.22500
C1435       C  0.01366586  0.28725080  0.20505868    -0.05300
C1436       C  0.01091343  0.30357473  0.22580598     0.00600
C1437       C  0.02516741  0.32627896  0.22696514    -0.07900
C1438       C  0.04112959  0.33243286  0.20648879    -0.05300
C1439       C  0.04236510  0.31712390  0.18455617     0.00600
C1440       C  0.02864918  0.29382221  0.18406139    -0.07900
C1441       C  0.02870747  0.27630886  0.16121756     0.62500
H1442       H  0.00248005  0.26997783  0.20473031     0.13200
H1443       H  0.05145131  0.35025764  0.20660409     0.13200
C1444       C  0.02251123  0.34436572  0.24918553     0.62800
F1445       F  0.01065466  0.25739140  0.16305057    -0.22400
F1446       F  0.05164958  0.26451119  0.15996409    -0.19700
F1447       F  0.02399302  0.29003791  0.13900742    -0.19400
F1448       F  0.02748037  0.33146702  0.27181196    -0.19500
F1449       F  0.99844749  0.35380626  0.24977561    -0.19800
F1450       F  0.03883878  0.36484790  0.24735259    -0.22500
C1451       C  0.11735880  0.28590534  0.07843247    -0.05300
C1452       C  0.13988276  0.29940410  0.07650940     0.00600
C1453       C  0.14383023  0.32139407  0.09148199    -0.07900
C1454       C  0.12482082  0.32901953  0.10825141    -0.05300
C1455       C  0.10175740  0.31611678  0.10927915     0.00600
C1456       C  0.09771354  0.29459494  0.09357425    -0.07900
C1457       C  0.07227544  0.28208778  0.09110557     0.62500
H1458       H  0.11458963  0.26958521  0.06617307     0.13200
H1459       H  0.12731777  0.34588285  0.11982460     0.13200
C1460       C  0.16757438  0.33709050  0.08901035     0.62800
F1461       F  0.07218104  0.26239443  0.07363956    -0.22400
F1462       F  0.05489270  0.29998575  0.08311623    -0.19700
F1463       F  0.06532393  0.27202819  0.11431287    -0.19400
F1464       F  0.17066192  0.34500127  0.06394938    -0.19500
F1465       F  0.18786350  0.32249220  0.09640484    -0.19800
F1466       F  0.16705553  0.35860857  0.10414359    -0.22500
C1467       C  0.01293745  0.38555609  0.11637505    -0.05300
C1468       C  0.03908757  0.38595936  0.11820487     0.00600
C1469       C  0.05215667  0.40861299  0.11123859    -0.07900
C1470       C  0.03858745  0.42918241  0.10053746    -0.05300
C1471       C  0.01250802  0.42823175  0.09765683     0.00600
C1472       C  0.99934001  0.40657542  0.10699176    -0.07900
C1473       C  0.97106509  0.40588231  0.10798411     0.62500
H1474       H  0.00312961  0.36840746  0.12233128     0.13200
H1475       H  0.04841534  0.44606299  0.09386158     0.13200
C1476       C  0.08011252  0.41162553  0.11543948     0.62800
F1477       F  0.96231456  0.38491469  0.12157960    -0.22400
F1478       F  0.96148682  0.40453853  0.08359098    -0.19700
F1479       F  0.96234857  0.42764172  0.11969769    -0.19400
F1480       F  0.09293170  0.39970049  0.09614632    -0.19500
F1481       F  0.08717952  0.40120561  0.13876358    -0.19800
F1482       F  0.08704894  0.43712527  0.11544884    -0.22500
C1483       C  0.10223873  0.29823211  0.96078136    -0.05300
C1484       C  0.10728203  0.32248314  0.95042807     0.00600
C1485       C  0.13099290  0.33385431  0.95463040    -0.07900
C1486       C  0.14776136  0.32184278  0.97174975    -0.05300
C1487       C  0.14153847  0.29885712  0.98417246     0.00600
C1488       C  0.11901855  0.28613589  0.97767086    -0.07900
C1489       C  0.11229610  0.26037578  0.98933677     0.62500
H1490       H  0.08427636  0.28953255  0.95675251     0.13200
H1491       H  0.16513689  0.33118579  0.97688756     0.13200
C1492       C  0.13840351  0.35868141  0.94152515     0.62800
F1493       F  0.10987067  0.26243207  0.01547687    -0.22400
F1494       F  0.13082714  0.24293679  0.98407256    -0.19700
F1495       F  0.08999258  0.25099680  0.97963253    -0.19400
F1496       F  0.12575771  0.37886457  0.95214665    -0.19500
F1497       F  0.13276407  0.35751872  0.91573736    -0.19800
F1498       F  0.16376349  0.36335787  0.94399976    -0.22500
C1499       C  0.03062398  0.29638130  0.89005847    -0.05300
C1500       C  0.03894990  0.32141427  0.88511171     0.00600
C1501       C  0.03204784  0.33349489  0.86179407    -0.07900
C1502       C  0.01355981  0.32203929  0.84645184    -0.05300
C1503       C  0.00389127  0.29780552  0.85239695     0.00600
C1504       C  0.01374315  0.28398991  0.87352769    -0.07900
C1505       C  0.00639420  0.25636649  0.87849874     0.62500
H1506       H  0.03683334  0.28690419  0.90743966     0.13200
H1507       H  0.00659792  0.33208738  0.82966854     0.13200
C1508       C  0.04408556  0.35791239  0.85205674     0.62800
F1509       F  0.01787320  0.24655583  0.90021901    -0.22400
F1510       F  0.01343834  0.24163898  0.85802285    -0.19700
F1511       F  0.98090725  0.25431513  0.88161050    -0.19400
F1512       F  0.06537648  0.36436417  0.86567263    -0.19500
F1513       F  0.02718807  0.37771881  0.85336357    -0.19800
F1514       F  0.05096803  0.35476200  0.82685780    -0.22500
C1515       C  0.03047553  0.43403572  0.95794471    -0.05300
C1516       C  0.01764195  0.42858730  0.98084409     0.00600
C1517       C  0.01739714  0.40269771  0.98998011    -0.07900
C1518       C  0.02903298  0.38364088  0.97538402    -0.05300
C1519       C  0.04109925  0.38922185  0.95237760     0.00600
C1520       C  0.04229052  0.41481062  0.94366040    -0.07900
C1521       C  0.05635363  0.42164577  0.91948432     0.62500
H1522       H  0.03096919  0.45356372  0.95100035     0.13200
H1523       H  0.02878414  0.36391225  0.98179481     0.13200
C1524       C  0.00559834  0.39474955  0.01521810     0.62800
F1525       F  0.05673344  0.44772392  0.91495002    -0.22400
F1526       F  0.04509551  0.41004073  0.89877108    -0.19700
F1527       F  0.08078365  0.41333536  0.92157931    -0.19400
F1528       F  0.97991391  0.39693005  0.01358096    -0.19500
F1529       F  0.01472476  0.40990685  0.03467574    -0.19800
F1530       F  0.01090965  0.36963134  0.02169456    -0.22500
C1531       C  0.80705802  0.28411664  0.98865389    -0.05300
C1532       C  0.78556148  0.29796315  0.99437613     0.00600
C1533       C  0.78019725  0.32084243  0.98089416    -0.07900
C1534       C  0.79747033  0.32979831  0.96271490    -0.05300
C1535       C  0.82000953  0.31693174  0.95843072     0.00600
C1536       C  0.82486296  0.29352130  0.97140035    -0.07900
C1537       C  0.84956295  0.27959635  0.96890011     0.62500
H1538       H  0.81062864  0.26670203  0.99938988     0.13200
H1539       H  0.79431409  0.34784039  0.95293290     0.13200
C1540       C  0.75738337  0.33662232  0.98701433     0.62800
F1541       F  0.85077197  0.25820944  0.98462319    -0.22400
F1542       F  0.86897473  0.29571576  0.97562190    -0.19700
F1543       F  0.85273761  0.27157107  0.94411698    -0.19400
F1544       F  0.76063538  0.34787983  0.01058037    -0.19500
F1545       F  0.73632814  0.32128418  0.98760849    -0.19800
F1546       F  0.75341945  0.35569243  0.96893471    -0.22500
C1547       C  0.89995397  0.31549653  0.84504496    -0.05300
C1548       C  0.91273954  0.29312327  0.85219654     0.00600
C1549       C  0.90747479  0.28135626  0.87604997    -0.07900
C1550       C  0.89215894  0.29412235  0.89327429    -0.05300
C1551       C  0.88114894  0.31760424  0.88707672     0.00600
C1552       C  0.88378587  0.32782398  0.86210983    -0.07900
C1553       C  0.86975896  0.35161707  0.85372712     0.62500
H1554       H  0.90401825  0.32415509  0.82666430     0.13200
H1555       H  0.88957822  0.28610624  0.91224766     0.13200
C1556       C  0.91843473  0.25608067  0.88485859     0.62800
F1557       F  0.87228213  0.35628678  0.82780751    -0.22400
F1558       F  0.87870356  0.37265052  0.86667292    -0.19700
F1559       F  0.84461172  0.34857328  0.85882260    -0.19400
F1560       F  0.93477541  0.26030150  0.90495473    -0.19500
F1561       F  0.93089930  0.24348842  0.86574470    -0.19800
F1562       F  0.89938905  0.24024232  0.89323327    -0.22500
C1563       C  0.87463950  0.41001667  0.94709108    -0.05300
C1564       C  0.88414302  0.38576592  0.95283179     0.00600
C1565       C  0.90492364  0.38329363  0.96934818    -0.07900
C1566       C  0.91565355  0.40548270  0.97959128    -0.05300
C1567       C  0.90606590  0.43015509  0.97446032     0.00600
C1568       C  0.88508205  0.43241137  0.95758181    -0.07900
C1569       C  0.87313501  0.45787443  0.95078614     0.62500
H1570       H  0.85865770  0.41113573  0.93434327     0.13200
H1571       H  0.93170979  0.40344456  0.99206805     0.13200
C1572       C  0.91544359  0.35724825  0.97647810     0.62800
F1573       F  0.85270162  0.45508022  0.93467657    -0.22400
F1574       F  0.89020093  0.47341121  0.93838734    -0.19700
F1575       F  0.86494544  0.46952443  0.97274336    -0.19400
F1576       F  0.92342583  0.34496291  0.95478638    -0.19500
F1577       F  0.89718830  0.34265184  0.98818965    -0.19800
F1578       F  0.93553925  0.35904563  0.99317181    -0.22500
C1579       C  0.89473511  0.30067229  0.19064995    -0.05300
C1580       C  0.88449544  0.32512255  0.19360668     0.00600
C1581       C  0.89054353  0.33923798  0.21586676    -0.07900
C1582       C  0.90912695  0.32981867  0.23255680    -0.05300
C1583       C  0.92067571  0.30628558  0.22844137     0.00600
C1584       C  0.91258150  0.29082471  0.20791620    -0.07900
C1585       C  0.92343297  0.26441784  0.20378596     0.62500
H1586       H  0.88968636  0.28988199  0.17383614     0.13200
H1587       H  0.91505574  0.34119566  0.24871312     0.13200
C1588       C  0.87793329  0.36396315  0.22322052     0.62800
F1589       F  0.91247349  0.25235640  0.18311479    -0.22400
F1590       F  0.91944247  0.24930957  0.22516820    -0.19700
F1591       F  0.94879458  0.26620569  0.19939097    -0.19400
F1592       F  0.85856522  0.37074744  0.20698430    -0.19500
F1593       F  0.89539264  0.38347548  0.22347058    -0.19800
F1594       F  0.86815252  0.36121951  0.24747452    -0.22500
C1595       C  0.79682698  0.32746902  0.11906134    -0.05300
C1596       C  0.82012840  0.31602511  0.12376137     0.00600
C1597       C  0.82609095  0.29283312  0.11136121    -0.07900
C1598       C  0.80916458  0.28305524  0.09318416    -0.05300
C1599       C  0.78668972  0.29550274  0.08734323     0.00600
C1600       C  0.77988337  0.31747902  0.10103334    -0.07900
C1601       C  0.75515095  0.33063498  0.09591177     0.62500
H1602       H  0.79258569  0.34511651  0.12871130     0.13200
H1603       H  0.81380503  0.26615805  0.08246089     0.13200
C1604       C  0.85049918  0.27889191  0.11647344     0.62800
F1605       F  0.75415708  0.33939345  0.07093132    -0.22400
F1606       F  0.75169614  0.35123087  0.11185558    -0.19700
F1607       F  0.73582070  0.31352920  0.09991965    -0.19400
F1608       F  0.85081448  0.26963346  0.14126931    -0.19500
F1609       F  0.87055456  0.29521216  0.11290720    -0.19800
F1610       F  0.85347640  0.25832084  0.10037072    -0.22500
C1611       C  0.88707228  0.38466935  0.09722543    -0.05300
C1612       C  0.87905456  0.38940291  0.12217905     0.00600
C1613       C  0.88048707  0.41458076  0.13175988    -0.07900
C1614       C  0.89162645  0.43374423  0.11655516    -0.05300
C1615       C  0.90047603  0.42889555  0.09181642     0.00600
C1616       C  0.89712871  0.40401124  0.08148846    -0.07900
C1617       C  0.90254186  0.39780911  0.05369097     0.62500
H1618       H  0.88525642  0.36540979  0.09006039     0.13200
H1619       H  0.89386184  0.45275278  0.12421493     0.13200
C1620       C  0.86988018  0.42149822  0.15759562     0.62800
F1621       F  0.89299947  0.37418268  0.04692550    -0.22400
F1622       F  0.92791066  0.39725903  0.04938814    -0.19700
F1623       F  0.89162835  0.41591947  0.03783910    -0.19400
F1624       F  0.88458554  0.41128296  0.17685193    -0.19500
F1625       F  0.84580036  0.41214949  0.15980565    -0.19800
F1626       F  0.86903075  0.44769384  0.16090249    -0.22500
C1627       C  0.03809195  0.70718939  0.20418476    -0.05300
C1628       C  0.04074637  0.71987101  0.18052008     0.00600
C1629       C  0.02874184  0.74380635  0.17657545    -0.07900
C1630       C  0.01425511  0.75379850  0.19636123    -0.05300
C1631       C  0.01001193  0.74009026  0.21899010     0.00600
C1632       C  0.02238872  0.71666272  0.22334750    -0.07900
C1633       C  0.01813746  0.70141675  0.24770703     0.62500
H1634       H  0.04722408  0.68892817  0.20688421     0.13200
H1635       H  0.00426271  0.77156162  0.19351834     0.13200
C1636       C  0.02909149  0.75781296  0.15101018     0.62800
F1637       F  0.03247953  0.67947580  0.24860852    -0.22400
F1638       F  0.99331372  0.69429869  0.24937845    -0.19700
F1639       F  0.02438207  0.71618614  0.26855904    -0.19400
F1640       F  0.02195155  0.74139713  0.13177625    -0.19500
F1641       F  0.05270443  0.76726797  0.14623384    -0.19800
F1642       F  0.01277012  0.77826767  0.15042514    -0.22500
C1643       C  0.11571191  0.74478875  0.07523502    -0.05300
C1644       C  0.14003161  0.73500975  0.07710384     0.00600
C1645       C  0.14525644  0.71518517  0.09487988    -0.07900
C1646       C  0.12593413  0.70640392  0.11087107    -0.05300
C1647       C  0.10138264  0.71532163  0.10800311     0.00600
C1648       C  0.09592672  0.73426662  0.08926131    -0.07900
C1649       C  0.06975211  0.74303419  0.08200440     0.62500
H1650       H  0.11172191  0.75932656  0.06089271     0.13200
H1651       H  0.12950198  0.69143342  0.12483508     0.13200
C1652       C  0.17046625  0.70212426  0.09562771     0.62800
F1653       F  0.06665225  0.76809617  0.08935296    -0.22400
F1654       F  0.05114739  0.72834291  0.09287118    -0.19700
F1655       F  0.06668467  0.74168365  0.05576835    -0.19400
F1656       F  0.18925223  0.71981469  0.09950448    -0.19500
F1657       F  0.17436651  0.68996139  0.07269034    -0.19800
F1658       F  0.17191996  0.68406803  0.11507025    -0.22500
C1659       C  0.01386053  0.64704499  0.11600695    -0.05300
C1660       C  0.03943854  0.64530124  0.12160122     0.00600
C1661       C  0.05219080  0.62217562  0.11647677    -0.07900
C1662       C  0.03896158  0.60210647  0.10474979    -0.05300
C1663       C  0.01348556  0.60412194  0.09854407     0.00600
C1664       C  0.00054766  0.62695319  0.10460788    -0.07900
C1665       C  0.97277019  0.63038134  0.09935913     0.62500
H1666       H  0.00448325  0.66489186  0.11979200     0.13200
H1667       H  0.04878943  0.58473077  0.10001845     0.13200
C1668       C  0.07959396  0.61766978  0.12262504     0.62800
F1669       F  0.96347891  0.65208924  0.11074093    -0.22400
F1670       F  0.95971793  0.60964065  0.10897589    -0.19700
F1671       F  0.96842262  0.63275064  0.07339585    -0.19400
F1672       F  0.08939288  0.63530703  0.13943759    -0.19500
F1673       F  0.09309700  0.61857225  0.10022624    -0.19800
F1674       F  0.08252811  0.59378152  0.13376586    -0.22500
C1675       C  0.90687782  0.71893114  0.22625816    -0.05300
C1676       C  0.91989088  0.74085541  0.21813931     0.00600
C1677       C  0.91485437  0.75131834  0.19357153    -0.07900
C1678       C  0.89852354  0.73819552  0.17708203    -0.05300
C1679       C  0.88678995  0.71537381  0.18457676     0.00600
C1680       C  0.88990814  0.70623783  0.20991918    -0.07900
C1681       C  0.87522562  0.68332767  0.21951653     0.62500
H1682       H  0.91093506  0.71120667  0.24508992     0.13200
H1683       H  0.89523321  0.74531381  0.15786027     0.13200
C1684       C  0.92687855  0.77618494  0.18480573     0.62800
F1685       F  0.87869990  0.67936599  0.24547015    -0.22400
F1686       F  0.88266000  0.66159635  0.20693138    -0.19700
F1687       F  0.85001805  0.68722394  0.21508403    -0.19400
F1688       F  0.95253961  0.77373889  0.18412111    -0.19500
F1689       F  0.92075035  0.79537731  0.20155980    -0.19800
F1690       F  0.91877759  0.78344198  0.16064380    -0.22500
C1691       C  0.82541215  0.74163333  0.11050968    -0.05300
C1692       C  0.81748131  0.71839970  0.12136956     0.00600
C1693       C  0.79257678  0.71002848  0.11738579    -0.07900
C1694       C  0.77735123  0.72377627  0.10009489    -0.05300
C1695       C  0.78622267  0.74565184  0.08743248     0.00600
C1696       C  0.81010796  0.75554770  0.09358793    -0.07900
C1697       C  0.81963592  0.78025830  0.08166637     0.62500
H1698       H  0.84432159  0.74806082  0.11426674     0.13200
H1699       H  0.75889082  0.71676346  0.09521305     0.13200
C1700       C  0.78208101  0.68695017  0.13139630     0.62800
F1701       F  0.82255500  0.77743191  0.05564844    -0.22400
F1702       F  0.84245990  0.78750667  0.09191947    -0.19700
F1703       F  0.80276501  0.79963178  0.08603073    -0.19400
F1704       F  0.78591602  0.68968849  0.15737077    -0.19500
F1705       F  0.79365609  0.66495032  0.12337838    -0.19800
F1706       F  0.75666232  0.68424730  0.12711480    -0.22500
C1707       C  0.87953597  0.62350306  0.12972546    -0.05300
C1708       C  0.87940539  0.64764819  0.11800679     0.00600
C1709       C  0.89112780  0.65094280  0.09403803    -0.07900
C1710       C  0.90173171  0.62952244  0.08211511    -0.05300
C1711       C  0.90168570  0.60501306  0.09357977     0.00600
C1712       C  0.89077843  0.60215680  0.11825064    -0.07900
C1713       C  0.89182018  0.57718377  0.13320974     0.62500
H1714       H  0.87087081  0.62161847  0.14827183     0.13200
H1715       H  0.91029887  0.63189846  0.06358238     0.13200
C1716       C  0.89317345  0.67718130  0.08151697     0.62800
F1717       F  0.88352052  0.57992665  0.15800485    -0.22400
F1718       F  0.91619890  0.56859649  0.13451254    -0.19700
F1719       F  0.87681346  0.55913655  0.12153480    -0.19400
F1720       F  0.90369335  0.69427145  0.09850868    -0.19500
F1721       F  0.86978518  0.68575864  0.07426199    -0.19800
F1722       F  0.90797829  0.67680422  0.05997499    -0.22500
C1723       C  0.88780088  0.71227499  0.87041253    -0.05300
C1724       C  0.88860408  0.72327580  0.89479751     0.00600
C1725       C  0.90486609  0.74429352  0.89935257    -0.07900
C1726       C  0.91917160  0.75385555  0.87913397    -0.05300
C1727       C  0.92007570  0.74141037  0.85568861     0.00600
C1728       C  0.90385250  0.72068543  0.85082324    -0.07900
C1729       C  0.90429111  0.70716898  0.82538130     0.62500
H1730       H  0.87549800  0.69612037  0.86731260     0.13200
H1731       H  0.93197361  0.76959390  0.88252947     0.13200
C1732       C  0.90966635  0.75619023  0.92526412     0.62800
F1733       F  0.88626759  0.68821588  0.82397518    -0.22400
F1734       F  0.92739045  0.69608223  0.82187270    -0.19700
F1735       F  0.89986917  0.72458026  0.80586253    -0.19400
F1736       F  0.90060192  0.74168534  0.94523057    -0.19500
F1737       F  0.89893960  0.78014355  0.92569834    -0.19800
F1738       F  0.93511109  0.75885365  0.92930423    -0.22500
C1739       C  0.80038604  0.71279948  0.96695991    -0.05300
C1740       C  0.82274493  0.72631273  0.96269493     0.00600
C1741       C  0.82603976  0.75071494  0.97403216    -0.07900
C1742       C  0.80683976  0.76053025  0.98913931    -0.05300
C1743       C  0.78559731  0.74611960  0.99492331     0.00600
C1744       C  0.78198315  0.72204689  0.98353452    -0.07900
C1745       C  0.75938711  0.70580653  0.99005899     0.62500
H1746       H  0.79819204  0.69413939  0.95846638     0.13200
H1747       H  0.80924301  0.77866003  0.99866145     0.13200
C1748       C  0.85045672  0.76537472  0.97257367     0.62800
F1749       F  0.75841731  0.68372791  0.97576279    -0.22400
F1750       F  0.73783667  0.71956532  0.98528916    -0.19700
F1751       F  0.76021542  0.69888604  0.01560586    -0.19400
F1752       F  0.86964205  0.75006063  0.98148564    -0.19500
F1753       F  0.85026182  0.78718936  0.98731229    -0.19800
F1754       F  0.85488631  0.77293305  0.94773965    -0.22500
C1755       C  0.87138269  0.63069299  0.95759126    -0.05300
C1756       C  0.88389892  0.65412163  0.95993831     0.00600
C1757       C  0.90689147  0.65516278  0.97326972    -0.07900
C1758       C  0.91731104  0.63231663  0.98264201    -0.05300
C1759       C  0.90522380  0.60845051  0.98004546     0.00600
C1760       C  0.88140738  0.60775736  0.96771817    -0.07900
C1761       C  0.86610564  0.58338071  0.96580638     0.62500
H1762       H  0.85360639  0.63057026  0.94760213     0.13200
H1763       H  0.93531888  0.63310525  0.99211596     0.13200
C1764       C  0.92020670  0.68040584  0.97798742     0.62800
F1765       F  0.84251256  0.58786248  0.95578351    -0.22400
F1766       F  0.86318057  0.57266496  0.98985507    -0.19700
F1767       F  0.87791418  0.56627017  0.95003042    -0.19400
F1768       F  0.90390109  0.69758996  0.98876515    -0.19500
F1769       F  0.92896215  0.69037619  0.95521602    -0.19800
F1770       F  0.94034271  0.67757131  0.99449627    -0.22500
C1771       C  0.11012340  0.73689164  0.96138362    -0.05300
C1772       C  0.11376222  0.71184939  0.95284324     0.00600
C1773       C  0.13658559  0.69935471  0.95867489    -0.07900
C1774       C  0.15333880  0.71097098  0.97590917    -0.05300
C1775       C  0.14871228  0.73524906  0.98596687     0.00600
C1776       C  0.12741619  0.74903905  0.97756153    -0.07900
C1777       C  0.12252013  0.77619336  0.98627768     0.62500
H1778       H  0.09286230  0.74643287  0.95637314     0.13200
H1779       H  0.16972905  0.70058147  0.98234787     0.13200
C1780       C  0.14399486  0.67388683  0.94748713     0.62800
F1781       F  0.09958986  0.78507744  0.97775516    -0.22400
F1782       F  0.14075348  0.79223026  0.97660128    -0.19700
F1783       F  0.12275533  0.77754576  0.01262483    -0.19400
F1784       F  0.12839055  0.66627966  0.92780786    -0.19500
F1785       F  0.14379800  0.65535393  0.96646900    -0.19800
F1786       F  0.16787291  0.67580037  0.93773505    -0.22500
C1787       C  0.03744420  0.70107819  0.86862723    -0.05300
C1788       C  0.04164863  0.71400241  0.89165616     0.00600
C1789       C  0.03007109  0.73794743  0.89565554    -0.07900
C1790       C  0.01455066  0.74805001  0.87631279    -0.05300
C1791       C  0.00943116  0.73458032  0.85385621     0.00600
C1792       C  0.02113924  0.71084540  0.84971427    -0.07900
C1793       C  0.01564036  0.69562071  0.82584798     0.62500
H1794       H  0.04622526  0.68268032  0.86610032     0.13200
H1795       H  0.00485801  0.76589638  0.87924591     0.13200
C1796       C  0.03267365  0.75202658  0.92079440     0.62800
F1797       F  0.99074905  0.68854436  0.82532869    -0.22400
F1798       F  0.02993369  0.67367757  0.82482466    -0.19700
F1799       F  0.02080063  0.71036060  0.80447316    -0.19400
F1800       F  0.05697503  0.76028871  0.92407298    -0.19500
F1801       F  0.02622537  0.73601093  0.94086897    -0.19800
F1802       F  0.01734835  0.77324188  0.92162252    -0.22500
C1803       C  0.04038541  0.64776642  0.98311926    -0.05300
C1804       C  0.04725942  0.64443880  0.95757399     0.00600
C1805       C  0.04274930  0.62059708  0.94577984    -0.07900
C1806       C  0.03000241  0.60143439  0.95958114    -0.05300
C1807       C  0.02203748  0.60508723  0.98480281     0.00600
C1808       C  0.02802964  0.62845995  0.99712805    -0.07900
C1809       C  0.02200998  0.63307349  0.02500918     0.62500
H1810       H  0.04439593  0.66598360  0.99190755     0.13200
H1811       H  0.02574379  0.58343456  0.95049140     0.13200
C1812       C  0.05205524  0.61500741  0.91908682     0.62800
F1813       F  0.03362287  0.65485875  0.03414224    -0.22400
F1814       F  0.03013008  0.61266193  0.03978745    -0.19700
F1815       F  0.99656550  0.63610129  0.02781322    -0.19400
F1816       F  0.07736962  0.62008881  0.91778868    -0.19500
F1817       F  0.03958158  0.62992086  0.90127491    -0.19800
F1818       F  0.04833976  0.58968428  0.91262818    -0.22500
loop_ 
_geom_bond_atom_site_label_1 
_geom_bond_atom_site_label_2 
_geom_bond_distance 
_geom_bond_site_symmetry_2 
_ccdc_geom_bond_type 
C1            C2   1.404       .  A
C1            C6   1.406       .  A
C1         C1804   1.489       .  S
C2            C3   1.405       .  A
C2            H7   1.084       .  S
C3            C4   1.402       .  A
C3         C1788   1.484       .  S
C4            C5   1.405       .  A
C4            H8   1.083       .  S
C5            C6   1.409       .  A
C5         C1772   1.488       .  S
C6            H9   1.084       .  S
C10          C11   1.400       .  A
C10          C15   1.405       .  A
C10        C1756   1.484       .  S
C11          C12   1.401       .  A
C11          H16   1.084       .  S
C12          C13   1.406       .  A
C12        C1724   1.480       .  S
C13          C14   1.408       .  A
C13          H17   1.082       .  S
C14          C15   1.410       .  A
C14        C1740   1.492       .  S
C15          H18   1.084       .  S
C19          C20   1.405       .  A
C19          C24   1.407       .  A
C19        C1708   1.492       .  S
C20          C21   1.407       .  A
C20          H25   1.083       .  S
C21          C22   1.404       .  A
C21        C1692   1.484       .  S
C22          C23   1.402       .  A
C22          H26   1.084       .  S
C23          C24   1.408       .  A
C23        C1679   1.486       .  S
C24          H27   1.084       .  S
C28          C29   1.402       .  A
C28          C33   1.406       .  A
C28        C1660   1.487       .  S
C29          C30   1.401       .  A
C29          H34   1.084       .  S
C30          C31   1.404       .  A
C30        C1647   1.476       .  S
C31          C32   1.405       .  A
C31          H35   1.081       .  S
C32          C33   1.407       .  A
C32        C1628   1.491       .  S
C33          H36   1.084       .  S
C37          C38   1.403       .  A
C37          C42   1.404       .  A
C37        C1612   1.490       .  S
C38          C39   1.404       .  A
C38          H43   1.084       .  S
C39          C40   1.405       .  A
C39        C1596   1.488       .  S
C40          C41   1.408       .  A
C40          H44   1.082       .  S
C41          C42   1.408       .  A
C41        C1580   1.488       .  S
C42          H45   1.083       .  S
C46          C47   1.401       .  A
C46          C51   1.401       .  A
C46        C1564   1.480       .  S
C47          C48   1.404       .  A
C47          H52   1.084       .  S
C48          C49   1.403       .  A
C48        C1535   1.482       .  S
C49          C50   1.404       .  A
C49          H53   1.083       .  S
C50          C51   1.405       .  A
C50        C1551   1.481       .  S
C51          H54   1.084       .  S
C55          C56   1.407       .  A
C55          C60   1.403       .  A
C55        C1519   1.491       .  S
C56          C57   1.410       .  A
C56          H61   1.084       .  S
C57          C58   1.404       .  A
C57        C1500   1.487       .  S
C58          C59   1.404       .  A
C58          H62   1.084       .  S
C59          C60   1.406       .  A
C59        C1484   1.484       .  S
C60          H63   1.083       .  S
C64          C65   1.401       .  A
C64          C69   1.404       .  A
C64        C1468   1.491       .  S
C65          C66   1.403       .  A
C65          H70   1.082       .  S
C66          C67   1.411       .  A
C66        C1455   1.486       .  S
C67          C68   1.411       .  A
C67          H71   1.082       .  S
C68          C69   1.406       .  A
C68        C1439   1.496       .  S
C69          H72   1.084       .  S
O73         Zr85   2.465   1_455  S
O73          C75   1.292       .  A
O74        Zr111   2.401       .  S
O74          C75   1.280   1_655  A
C75        C1663   1.487       .  S
O76         Zr88   2.478   1_456  S
O76          C78   1.295       .  A
O77        Zr112   2.423       .  S
O77          C78   1.284   1_654  A
C78        C1516   1.512       .  S
O79         Zr88   2.456   1_456  S
O79          C81   1.292       .  A
O80        Zr111   2.424       .  S
O80          C81   1.285   1_654  A
C81        C1807   1.493       .  S
O82         Zr85   2.455   1_455  S
O82          C84   1.290   1_455  A
O83        Zr112   2.426       .  S
O83          C84   1.286       .  A
C84        C1471   1.487   1_655  S
Zr85         O86   2.434   1_655  S
Zr85         O87   2.435       .  S
Zr85         O91   2.374       .  S
Zr85         O92   2.382       .  S
Zr85        O115   2.378       .  S
Zr85        O117   2.373       .  S
O86         H129   0.990       .  S
O87         H128   0.990   1_655  S
O87         H132   0.990       .  S
Zr88         O89   2.436   1_655  S
Zr88         O90   2.434   1_654  S
Zr88         O92   2.372       .  S
Zr88         O91   2.381       .  S
Zr88        O116   2.384   1_554  S
Zr88        O118   2.372   1_554  S
O89         H130   0.990       .  S
O89         H133   0.990   1_554  S
O90         H123   0.990       .  S
O91        Zr111   2.378       .  S
O92        Zr112   2.379       .  S
O92         H119   0.966   1_655  S
O93        Zr105   2.458       .  S
O93          C95   1.292       .  A
O94        Zr112   2.415       .  S
O94          C95   1.282       .  A
C95        C1615   1.494       .  S
O96        Zr108   2.475       .  S
O96          C98   1.293       .  A
O97        Zr111   2.401       .  S
O97          C98   1.284   1_554  A
C98        C1759   1.503       .  S
O99        Zr108   2.467       .  S
O99         C101   1.291       .  A
O100       Zr112   2.410       .  S
O100        C101   1.286   1_554  A
C101       C1567   1.506       .  S
O102       Zr105   2.464       .  S
O102        C104   1.290       .  A
O103       Zr111   2.436       .  S
O103        C104   1.289       .  A
C104       C1711   1.508       .  S
Zr105       O106   2.435       .  S
Zr105       O107   2.432       .  S
Zr105       O113   2.369       .  S
Zr105       O114   2.370       .  S
Zr105       O117   2.378       .  S
Zr105       O115   2.380       .  S
O106        H126   0.990       .  S
O106        H131   0.990       .  S
O107        H127   0.990       .  S
Zr108       O109   2.432       .  S
Zr108       O110   2.436       .  S
Zr108       O114   2.376   1_556  S
Zr108       O113   2.380   1_556  S
Zr108       O118   2.381       .  S
Zr108       O116   2.375       .  S
O109        H125   0.990   1_556  S
O110        H124   0.990       .  S
O110        H134   0.990       .  S
Zr111       O114   2.375       .  S
Zr111       O116   2.385   1_554  S
Zr111       O117   2.379       .  S
Zr112       O113   2.384       .  S
Zr112       O115   2.377       .  S
Zr112       O118   2.378   1_554  S
O113        H121   0.967       .  S
O116        H120   0.966       .  S
O117        H122   0.964       .  S
C135        C136   1.404       .  A
C135        C140   1.406       .  A
C135       C1423   1.488       .  S
C136        C137   1.405       .  A
C136        H141   1.084       .  S
C137        C138   1.401       .  A
C137       C1407   1.481       .  S
C138        C139   1.404       .  A
C138        H142   1.084       .  S
C139        C140   1.409       .  A
C139       C1388   1.489       .  S
C140        H143   1.084       .  S
C144        C145   1.404       .  A
C144        C149   1.407       .  A
C144       C1372   1.491       .  S
C145        C146   1.406       .  A
C145        H150   1.084       .  S
C146        C147   1.401       .  A
C146       C1356   1.484       .  S
C147        C148   1.403       .  A
C147        H151   1.083       .  S
C148        C149   1.408       .  A
C148       C1340   1.485       .  S
C149        H152   1.083       .  S
C153        C154   1.403       .  A
C153        C158   1.406       .  A
C153       C1327   1.489       .  S
C154        C155   1.406       .  A
C154        H159   1.084       .  S
C155        C156   1.399       .  A
C155       C1295   1.482       .  S
C156        C157   1.402       .  A
C156        H160   1.082       .  S
C157        C158   1.409       .  A
C157       C1308   1.483       .  S
C158        H161   1.084       .  S
C162        C163   1.409       .  A
C162        C167   1.406       .  A
C162       C1276   1.495       .  S
C163        C164   1.409       .  A
C163        H168   1.083       .  S
C164        C165   1.401       .  A
C164       C1244   1.482       .  S
C165        C166   1.398       .  A
C165        H169   1.084       .  S
C166        C167   1.404       .  A
C166       C1260   1.482       .  S
C167        H170   1.082       .  S
C171        C172   1.409       .  A
C171        C176   1.404       .  A
C171       C1228   1.496       .  S
C172        C173   1.409       .  A
C172        H177   1.084       .  S
C173        C174   1.399       .  A
C173       C1215   1.483       .  S
C174        C175   1.398       .  A
C174        H178   1.082       .  S
C175        C176   1.408       .  A
C175       C1196   1.482       .  S
C176        H179   1.082       .  S
C180        C181   1.404       .  A
C180        C185   1.405       .  A
C180       C1180   1.488       .  S
C181        C182   1.406       .  A
C181        H186   1.084       .  S
C182        C183   1.404       .  A
C182       C1148   1.489       .  S
C183        C184   1.407       .  A
C183        H187   1.083       .  S
C184        C185   1.408       .  A
C184       C1164   1.486       .  S
C185        H188   1.083       .  S
C189        C190   1.406       .  A
C189        C194   1.405       .  A
C189       C1135   1.490       .  S
C190        C191   1.410       .  A
C190        H195   1.080       .  S
C191        C192   1.411       .  A
C191       C1119   1.497       .  S
C192        C193   1.405       .  A
C192        H196   1.084       .  S
C193        C194   1.406       .  A
C193       C1100   1.490       .  S
C194        H197   1.084       .  S
C198        C199   1.406       .  A
C198        C203   1.409       .  A
C198       C1087   1.497       .  S
C199        C200   1.407       .  A
C199        H204   1.082       .  S
C200        C201   1.406       .  A
C200       C1052   1.492       .  S
C201        C202   1.405       .  A
C201        H205   1.083       .  S
C202        C203   1.411       .  A
C202       C1068   1.493       .  S
C203        H206   1.083       .  S
O207       Zr219   2.463       .  S
O207        C209   1.291       .  A
O208       Zr245   2.416       .  S
O208        C209   1.286       .  A
C209       C1279   1.492       .  S
O210       Zr222   2.469       .  S
O210        C212   1.291       .  A
O211       Zr246   2.427   1_565  S
O211        C212   1.288       .  A
C212       C1132   1.514       .  S
O213       Zr222   2.472       .  S
O213        C215   1.292       .  A
O214       Zr245   2.419   1_565  S
O214        C215   1.286       .  A
C215       C1420   1.509       .  S
O216       Zr219   2.484       .  S
O216        C218   1.296       .  A
O217       Zr246   2.411       .  S
O217        C218   1.281       .  A
C218       C1084   1.504       .  S
Zr219       O220   2.434       .  S
Zr219       O221   2.436       .  S
Zr219       O225   2.380       .  S
Zr219       O226   2.371       .  S
Zr219       O249   2.376       .  S
Zr219       O251   2.385       .  S
O220        H263   0.990       .  S
O221        H262   0.990       .  S
O221        H266   0.990       .  S
Zr222       O223   2.432       .  S
Zr222       O224   2.434       .  S
Zr222       O226   2.380   1_565  S
Zr222       O225   2.372   1_565  S
Zr222       O250   2.376       .  S
Zr222       O252   2.379       .  S
O223        H264   0.990       .  S
O223        H267   0.990       .  S
O224        H257   0.990       .  S
O225       Zr245   2.377       .  S
O226       Zr246   2.379       .  S
O226        H253   0.970       .  S
O227       Zr239   2.470   1_556  S
O227        C229   1.292       .  A
O228       Zr246   2.426       .  S
O228        C229   1.287   1_554  A
C229       C1231   1.504       .  S
O230       Zr242   2.479       .  S
O230        C232   1.293       .  A
O231       Zr245   2.421   1_565  S
O231        C232   1.287   1_554  A
C232       C1375   1.511       .  S
O233       Zr242   2.484       .  S
O233        C235   1.295       .  A
O234       Zr246   2.405   1_565  S
O234        C235   1.284   1_554  A
C235       C1183   1.514       .  S
O236       Zr239   2.482   1_556  S
O236        C238   1.294       .  A
O237       Zr245   2.412       .  S
O237        C238   1.285   1_554  A
C238       C1324   1.511       .  S
Zr239       O240   2.433   1_554  S
Zr239       O241   2.436       .  S
Zr239       O247   2.381   1_554  S
Zr239       O248   2.376   1_554  S
Zr239       O251   2.374       .  S
Zr239       O249   2.382       .  S
O240        H260   0.990       .  S
O240        H265   0.990       .  S
O241        H261   0.989   1_554  S
Zr242       O243   2.434       .  S
Zr242       O244   2.436       .  S
Zr242       O248   2.381   1_565  S
Zr242       O247   2.379   1_565  S
Zr242       O252   2.377   1_556  S
Zr242       O250   2.379   1_556  S
O243        H259   0.990       .  S
O244        H258   0.990       .  S
O244        H268   0.990   1_556  S
Zr245       O248   2.378   1_554  S
Zr245       O250   2.381   1_545  S
Zr245       O251   2.384       .  S
Zr246       O247   2.384   1_554  S
Zr246       O249   2.380       .  S
Zr246       O252   2.380   1_545  S
O247        H255   0.969       .  S
O250        H254   0.965       .  S
O251        H256   0.974       .  S
C269        C270   1.401       .  A
C269        C274   1.402       .  A
C269       C1036   1.483       .  S
C270        C271   1.406       .  A
C270        H275   1.084       .  S
C271        C272   1.405       .  A
C271       C1023   1.487       .  S
C272        C273   1.405       .  A
C272        H276   1.083       .  S
C273        C274   1.406       .  A
C273       C1007   1.485       .  S
C274        H277   1.084       .  S
C278        C279   1.404       .  A
C278        C283   1.405       .  A
C278        C988   1.491       .  S
C279        C280   1.405       .  A
C279        H284   1.083       .  S
C280        C281   1.405       .  A
C280        C972   1.482       .  S
C281        C282   1.403       .  A
C281        H285   1.083       .  S
C282        C283   1.408       .  A
C282        C956   1.484       .  S
C283        H286   1.084       .  S
C287        C288   1.405       .  A
C287        C292   1.409       .  A
C287        C940   1.494       .  S
C288        C289   1.403       .  A
C288        H293   1.084       .  S
C289        C290   1.403       .  A
C289        C908   1.487       .  S
C290        C291   1.407       .  A
C290        H294   1.083       .  S
C291        C292   1.413       .  A
C291        C924   1.493       .  S
C292        H295   1.082       .  S
C296        C297   1.402       .  A
C296        C301   1.407       .  A
C296        C895   1.496       .  S
C297        C298   1.408       .  A
C297        H302   1.083       .  S
C298        C299   1.411       .  A
C298        C860   1.495       .  S
C299        C300   1.409       .  A
C299        H303   1.081       .  S
C300        C301   1.407       .  A
C300        C876   1.492       .  S
C301        H304   1.084       .  S
C305        C306   1.399       .  A
C305        C310   1.400       .  A
C305        C847   1.486       .  S
C306        C307   1.408       .  A
C306        H311   1.084       .  S
C307        C308   1.414       .  A
C307        C812   1.498       .  S
C308        C309   1.411       .  A
C308        H312   1.080       .  S
C309        C310   1.407       .  A
C309        C831   1.488       .  S
C310        H313   1.084       .  S
C314        C315   1.399       .  A
C314        C319   1.402       .  A
C314        C796   1.485       .  S
C315        C316   1.406       .  A
C315        H320   1.084       .  S
C316        C317   1.407       .  A
C316        C783   1.490       .  S
C317        C318   1.409       .  A
C317        H321   1.081       .  S
C318        C319   1.406       .  A
C318        C764   1.489       .  S
C319        H322   1.082       .  S
C323        C324   1.407       .  A
C323        C328   1.408       .  A
C323        C751   1.495       .  S
C324        C325   1.409       .  A
C324        H329   1.084       .  S
C325        C326   1.403       .  A
C325        C735   1.492       .  S
C326        C327   1.407       .  A
C326        H330   1.082       .  S
C327        C328   1.410       .  A
C327        C716   1.492       .  S
C328        H331   1.084       .  S
C332        C333   1.411       .  A
C332        C337   1.407       .  A
C332        C703   1.508       .  S
C333        C334   1.410       .  A
C333        H338   1.081       .  S
C334        C335   1.415       .  A
C334        C687   1.501       .  S
C335        C336   1.415       .  A
C335        H339   1.082       .  S
C336        C337   1.404       .  A
C336        C668   1.503       .  S
C337        H340   1.082       .  S
O341       Zr353   2.453       .  S
O341        C343   1.288       .  A
O342       Zr379   2.419   1_565  S
O342        C343   1.287   1_655  A
C343       C1039   1.505       .  S
O344       Zr356   2.426       .  S
O344        C346   1.284       .  A
O345       Zr380   2.454       .  S
O345        C346   1.292   1_655  A
C346        C700   1.478       .  S
O347       Zr356   2.465       .  S
O347        C349   1.292       .  A
O348       Zr379   2.425       .  S
O348        C349   1.285   1_655  A
C349        C892   1.501       .  S
O350       Zr353   2.472       .  S
O350        C352   1.294       .  A
O351       Zr380   2.427   1_565  S
O351        C352   1.285   1_655  A
C352        C748   1.506       .  S
Zr353       O354   2.432       .  S
Zr353       O355   2.434   1_455  S
Zr353       O359   2.386   1_565  S
Zr353       O360   2.370   1_565  S
Zr353       O383   2.371   1_455  S
Zr353       O385   2.380   1_455  S
O354        H397   0.990       .  S
O355        H396   0.990   1_655  S
O355        H400   0.990       .  S
Zr356       O357   2.435       .  S
Zr356       O358   2.434       .  S
Zr356       O360   2.382       .  S
Zr356       O359   2.369       .  S
Zr356       O384   2.364   1_455  S
Zr356       O386   2.388   1_455  S
O357        H398   0.990       .  S
O357        H401   0.990       .  S
O358        H391   0.990   1_455  S
O359       Zr379   2.375   1_455  S
O360       Zr380   2.380   1_455  S
O360        H387   0.965       .  S
O361       Zr373   2.460       .  S
O361        C363   1.292       .  A
O362       Zr380   2.435   1_565  S
O362        C363   1.287       .  A
C363        C799   1.505       .  S
O364       Zr376   2.477       .  S
O364        C366   1.295       .  A
O365       Zr379   2.413       .  S
O365        C366   1.283       .  A
C366        C943   1.499       .  S
O367       Zr376   2.497       .  S
O367        C369   1.300       .  A
O368       Zr380   2.411       .  S
O368        C369   1.278       .  A
C369        C844   1.515       .  S
O370       Zr373   2.483       .  S
O370        C372   1.294       .  A
O371       Zr379   2.407   1_565  S
O371        C372   1.284       .  A
C372        C991   1.502       .  S
Zr373       O374   2.435       .  S
Zr373       O375   2.434       .  S
Zr373       O381   2.383   1_565  S
Zr373       O382   2.374   1_565  S
Zr373       O385   2.372       .  S
Zr373       O383   2.388       .  S
O374        H394   0.990       .  S
O374        H399   0.990       .  S
O375        H395   0.990       .  S
Zr376       O377   2.436       .  S
Zr376       O378   2.435       .  S
Zr376       O382   2.385       .  S
Zr376       O381   2.370       .  S
Zr376       O386   2.378       .  S
Zr376       O384   2.386       .  S
O377        H393   0.990       .  S
O378        H392   0.990       .  S
O378        H402   0.990       .  S
Zr379       O382   2.382       .  S
Zr379       O384   2.380       .  S
Zr379       O385   2.383   1_545  S
Zr380       O381   2.387       .  S
Zr380       O383   2.381   1_545  S
Zr380       O386   2.386       .  S
O381        H389   0.966       .  S
O384        H388   0.967       .  S
O385        H390   0.967       .  S
C403        C404   1.396       .  A
C403        C408   1.412       .  A
C403       C1583   1.486       .  S
C404        C405   1.399       .  A
C404        H423   1.086       .  S
C405        C406   1.417       .  A
C405       C1436   1.486   1_655  S
C406        C407   1.421       .  A
C406        C413   1.406   1_655  A
C407        C408   1.421       .  A
C407        C412   1.422       .  A
C408        C409   1.404       .  A
C409        C410   1.392       .  A
C409        H419   1.083       .  S
C410        C411   1.405       .  A
C410        H420   1.083       .  S
C411        C412   1.420       .  A
C411        C418   1.412       .  A
C412        C415   1.422       .  A
C413        C414   1.397       .  A
C413        H421   1.083       .  S
C414        C415   1.407   1_455  A
C414        H422   1.083       .  S
C415        C416   1.418       .  A
C416        C417   1.400       .  A
C416        C671   1.490   1_655  S
C417        C418   1.399       .  A
C417        H424   1.085       .  S
C418        C815   1.486       .  S
C425        C426   1.398   1_565  A
C425        C430   1.420       .  A
C425       C1103   1.497       .  S
C426        C427   1.399       .  A
C426        H445   1.086       .  S
C427        C428   1.418       .  A
C427       C1055   1.489       .  S
C428        C429   1.422       .  A
C428        C435   1.407       .  A
C429        C430   1.427   1_545  A
C429        C434   1.425       .  A
C430        C431   1.405       .  A
C431        C432   1.398       .  A
C431        H441   1.083       .  S
C432        C433   1.406       .  A
C432        H442   1.083       .  S
C433        C434   1.422   1_565  A
C433        C440   1.416       .  A
C434        C437   1.427       .  A
C435        C436   1.398       .  A
C435        H443   1.083       .  S
C436        C437   1.405       .  A
C436        H444   1.083       .  S
C437        C438   1.421       .  A
C438        C439   1.396       .  A
C438        C684   1.495       .  S
C439        C440   1.396   1_545  A
C439        H446   1.086       .  S
C440        C719   1.486       .  S
C447        C448   1.397       .  A
C447        C452   1.414       .  A
C447       C1452   1.482       .  S
C448        C449   1.394       .  A
C448        H467   1.086       .  S
C449        C450   1.413       .  A
C449       C1487   1.486   1_554  S
C450        C451   1.424       .  A
C450        C457   1.403   1_554  A
C451        C452   1.420       .  A
C451        C456   1.420       .  A
C452        C453   1.407       .  A
C453        C454   1.397       .  A
C453        H463   1.082       .  S
C454        C455   1.404       .  A
C454        H464   1.083       .  S
C455        C456   1.424       .  A
C455        C462   1.418       .  A
C456        C459   1.419       .  A
C457        C458   1.393       .  A
C457        H465   1.083       .  S
C458        C459   1.406   1_556  A
C458        H466   1.083       .  S
C459        C460   1.410       .  A
C460        C461   1.393       .  A
C460       C1199   1.477   1_554  S
C461        C462   1.395       .  A
C461        H468   1.086       .  S
C462       C1071   1.487       .  S
C469        C470   1.394   1_565  A
C469        C474   1.415       .  A
C469       C1391   1.486       .  S
C470        C471   1.396       .  A
C470        H489   1.086       .  S
C471        C472   1.412       .  A
C471       C1263   1.481       .  S
C472        C473   1.421       .  A
C472        C479   1.404       .  A
C473        C474   1.422   1_545  A
C473        C478   1.420       .  A
C474        C475   1.404       .  A
C475        C476   1.396       .  A
C475        H485   1.083       .  S
C476        C477   1.406       .  A
C476        H486   1.083       .  S
C477        C478   1.421   1_565  A
C477        C484   1.415       .  A
C478        C481   1.422       .  A
C479        C480   1.393       .  A
C479        H487   1.083       .  S
C480        C481   1.405       .  A
C480        H488   1.083       .  S
C481        C482   1.414       .  A
C482        C483   1.398       .  A
C482        C828   1.487       .  S
C483        C484   1.398   1_545  A
C483        H490   1.086       .  S
C484        C767   1.486       .  S
C491        C492   1.395       .  A
C491        C496   1.418       .  A
C491       C1676   1.490       .  S
C492        C493   1.396       .  A
C492        H511   1.086       .  S
C493        C494   1.415       .  A
C493       C1631   1.483   1_655  S
C494        C495   1.421       .  A
C494        C501   1.406   1_655  A
C495        C496   1.425       .  A
C495        C500   1.423       .  A
C496        C497   1.404       .  A
C497        C498   1.397       .  A
C497        H507   1.083       .  S
C498        C499   1.408       .  A
C498        H508   1.083       .  S
C499        C500   1.421       .  A
C499        C506   1.416       .  A
C500        C503   1.425       .  A
C501        C502   1.397       .  A
C501        H509   1.083       .  S
C502        C503   1.405   1_455  A
C502        H510   1.083       .  S
C503        C504   1.418       .  A
C504        C505   1.398       .  A
C504        C732   1.492   1_655  S
C505        C506   1.398       .  A
C505        H512   1.086       .  S
C506        C780   1.487       .  S
C513        C514   1.396   1_565  A
C513        C518   1.416       .  A
C513       C1151   1.488       .  S
C514        C515   1.397       .  A
C514        H533   1.086       .  S
C515        C516   1.416       .  A
C515       C1212   1.484       .  S
C516        C517   1.422       .  A
C516        C523   1.407       .  A
C517        C518   1.423   1_545  A
C517        C522   1.422       .  A
C518        C519   1.405       .  A
C519        C520   1.396       .  A
C519        H529   1.083       .  S
C520        C521   1.405       .  A
C520        H530   1.083       .  S
C521        C522   1.421   1_565  A
C521        C528   1.414       .  A
C522        C525   1.423       .  A
C523        C524   1.397       .  A
C523        H531   1.083       .  S
C524        C525   1.405       .  A
C524        H532   1.083       .  S
C525        C526   1.417       .  A
C526        C527   1.395       .  A
C526        C879   1.487       .  S
C527        C528   1.396   1_545  A
C527        H534   1.086       .  S
C528       C1004   1.483       .  S
C535        C536   1.399       .  A
C535        C540   1.416       .  A
C535       C1548   1.485       .  S
C536        C537   1.396       .  A
C536        H555   1.086       .  S
C537        C538   1.413       .  A
C537       C1503   1.487   1_655  S
C538        C539   1.423       .  A
C538        C545   1.404   1_655  A
C539        C540   1.421       .  A
C539        C544   1.421       .  A
C540        C541   1.406       .  A
C541        C542   1.397       .  A
C541        H551   1.083       .  S
C542        C543   1.406       .  A
C542        H552   1.083       .  S
C543        C544   1.422       .  A
C543        C550   1.417       .  A
C544        C547   1.420       .  A
C545        C546   1.392       .  A
C545        H553   1.083       .  S
C546        C547   1.405   1_455  A
C546        H554   1.083       .  S
C547        C548   1.412       .  A
C548        C549   1.397       .  A
C548        C863   1.482   1_655  S
C549        C550   1.397       .  A
C549        H556   1.086       .  S
C550        C911   1.487       .  S
C557        C558   1.396       .  A
C557        C562   1.415       .  A
C557       C1775   1.486   1_554  S
C558        C559   1.397       .  A
C558        H577   1.086       .  S
C559        C560   1.417       .  A
C559       C1644   1.486       .  S
C560        C561   1.422       .  A
C560        C567   1.407       .  A
C561        C562   1.423       .  A
C561        C566   1.422       .  A
C562        C563   1.404   1_554  A
C563        C564   1.395       .  A
C563        H573   1.083       .  S
C564        C565   1.405   1_556  A
C564        H574   1.083       .  S
C565        C566   1.422       .  A
C565        C572   1.413       .  A
C566        C569   1.424       .  A
C567        C568   1.398       .  A
C567        H575   1.082       .  S
C568        C569   1.405       .  A
C568        H576   1.083       .  S
C569        C570   1.419       .  A
C570        C571   1.396       .  A
C570       C1116   1.489       .  S
C571        C572   1.394       .  A
C571        H578   1.086       .  S
C572       C1167   1.484   1_554  S
C579        C580   1.397       .  A
C579        C584   1.413       .  A
C579       C1532   1.482   1_554  S
C580        C581   1.398       .  A
C580        H599   1.086       .  S
C581        C582   1.415       .  A
C581       C1599   1.485       .  S
C582        C583   1.420       .  A
C582        C589   1.407       .  A
C583        C584   1.421       .  A
C583        C588   1.419       .  A
C584        C585   1.406   1_554  A
C585        C586   1.393       .  A
C585        H595   1.083       .  S
C586        C587   1.404   1_556  A
C586        H596   1.083       .  S
C587        C588   1.421       .  A
C587        C594   1.410       .  A
C588        C591   1.422       .  A
C589        C590   1.397       .  A
C589        H597   1.083       .  S
C590        C591   1.404       .  A
C590        H598   1.083       .  S
C591        C592   1.415       .  A
C592        C593   1.392       .  A
C592       C1247   1.480       .  S
C593        C594   1.391       .  A
C593        H600   1.087       .  S
C594       C1292   1.477   1_554  S
C601        C602   1.395       .  A
C601        C606   1.411       .  A
C601       C1727   1.480       .  S
C602        C603   1.395       .  A
C602        H621   1.086       .  S
C603        C604   1.416       .  A
C603       C1791   1.485   1_655  S
C604        C605   1.422       .  A
C604        C611   1.406   1_655  A
C605        C606   1.421       .  A
C605        C610   1.420       .  A
C606        C607   1.404       .  A
C607        C608   1.392       .  A
C607        H617   1.083       .  S
C608        C609   1.405       .  A
C608        H618   1.082       .  S
C609        C610   1.422       .  A
C609        C616   1.412       .  A
C610        C613   1.422       .  A
C611        C612   1.398       .  A
C611        H619   1.083       .  S
C612        C613   1.406   1_455  A
C612        H620   1.083       .  S
C613        C614   1.416       .  A
C614        C615   1.397       .  A
C614       C1020   1.487   1_655  S
C615        C616   1.397       .  A
C615        H622   1.086       .  S
C616        C959   1.483       .  S
C623        C624   1.395       .  A
C623        C628   1.414       .  A
C623       C1311   1.483       .  S
C624        C625   1.395   1_545  A
C624        H643   1.086       .  S
C625        C626   1.415       .  A
C625       C1359   1.483       .  S
C626        C627   1.422   1_565  A
C626        C633   1.405       .  A
C627        C628   1.421       .  A
C627        C632   1.420       .  A
C628        C629   1.405       .  A
C629        C630   1.396       .  A
C629        H639   1.083       .  S
C630        C631   1.405       .  A
C630        H640   1.083       .  S
C631        C632   1.424       .  A
C631        C638   1.414       .  A
C632        C635   1.423   1_545  A
C633        C634   1.395       .  A
C633        H641   1.083       .  S
C634        C635   1.405       .  A
C634        H642   1.082       .  S
C635        C636   1.414       .  A
C636        C637   1.397   1_565  A
C636        C975   1.485       .  S
C637        C638   1.394       .  A
C637        H644   1.086       .  S
C638        C927   1.486       .  S
C645        C646   1.393       .  A
C645        C650   1.412       .  A
C645       C1695   1.480       .  S
C646        C647   1.394       .  A
C646        H665   1.086       .  S
C647        C648   1.413       .  A
C647       C1743   1.480   1_554  S
C648        C649   1.421       .  A
C648        C655   1.405   1_554  A
C649        C650   1.422       .  A
C649        C654   1.419       .  A
C650        C651   1.405       .  A
C651        C652   1.395       .  A
C651        H661   1.083       .  S
C652        C653   1.405       .  A
C652        H662   1.083       .  S
C653        C654   1.421       .  A
C653        C660   1.413       .  A
C654        C657   1.421       .  A
C655        C656   1.396       .  A
C655        H663   1.083       .  S
C656        C657   1.405   1_556  A
C656        H664   1.083       .  S
C657        C658   1.414       .  A
C658        C659   1.395       .  A
C658       C1343   1.483   1_554  S
C659        C660   1.395       .  A
C659        H666   1.086       .  S
C660       C1404   1.481       .  S
C667        C668   1.412       .  A
C667        C672   1.414       .  A
C667        H674   1.083       .  S
C668        C669   1.424       .  A
C669        C670   1.407       .  A
C669        C676   1.513       .  S
C670        C671   1.397       .  A
C670        H675   1.084       .  S
C671        C672   1.412       .  A
C672        C673   1.515       .  S
C673        F677   1.383   1_455  S
C673        F678   1.383       .  S
C673        F679   1.384       .  S
C676        F680   1.383       .  S
C676        F681   1.380       .  S
C676        F682   1.385       .  S
C683        C684   1.401       .  A
C683        C688   1.408       .  A
C683        H690   1.083       .  S
C684        C685   1.417       .  A
C685        C686   1.417       .  A
C685        C692   1.517       .  S
C686        C687   1.410       .  A
C686        H691   1.083       .  S
C687        C688   1.419       .  A
C688        C689   1.513       .  S
C689        F693   1.385       .  S
C689        F694   1.372       .  S
C689        F695   1.383       .  S
C692        F696   1.384       .  S
C692        F697   1.382       .  S
C692        F698   1.383       .  S
C699        C700   1.403       .  A
C699        C704   1.412       .  A
C699        H706   1.084       .  S
C700        C701   1.408       .  A
C701        C702   1.405       .  A
C701        C708   1.520   1_455  S
C702        C703   1.414       .  A
C702        H707   1.081       .  S
C703        C704   1.426       .  A
C704        C705   1.519       .  S
C705        F709   1.385       .  S
C705        F710   1.384       .  S
C705        F711   1.382       .  S
C708        F712   1.383       .  S
C708        F713   1.375       .  S
C708        F714   1.384       .  S
C715        C716   1.406       .  A
C715        C720   1.405       .  A
C715        H722   1.082       .  S
C716        C717   1.421       .  A
C717        C718   1.410       .  A
C717        C724   1.517       .  S
C718        C719   1.403       .  A
C718        H723   1.085       .  S
C719        C720   1.415       .  A
C720        C721   1.520       .  S
C721        F725   1.385       .  S
C721        F726   1.382       .  S
C721        F727   1.382       .  S
C724        F728   1.382       .  S
C724        F729   1.383       .  S
C724        F730   1.384       .  S
C731        C732   1.401       .  A
C731        C736   1.409       .  A
C731        H738   1.083       .  S
C732        C733   1.416       .  A
C733        C734   1.411       .  A
C733        C740   1.515       .  S
C734        C735   1.405       .  A
C734        H739   1.083       .  S
C735        C736   1.422       .  A
C736        C737   1.520       .  S
C737        F741   1.385       .  S
C737        F742   1.381       .  S
C737        F743   1.383       .  S
C740        F744   1.385       .  S
C740        F745   1.382       .  S
C740        F746   1.380   1_455  S
C747        C748   1.410       .  A
C747        C752   1.414       .  A
C747        H754   1.083       .  S
C748        C749   1.428       .  A
C749        C750   1.412       .  A
C749        C756   1.521   1_565  S
C750        C751   1.401       .  A
C750        H755   1.083       .  S
C751        C752   1.416       .  A
C752        C753   1.518       .  S
C753        F757   1.384       .  S
C753        F758   1.381       .  S
C753        F759   1.384       .  S
C756        F760   1.383       .  S
C756        F761   1.383   1_455  S
C756        F762   1.385       .  S
C763        C764   1.404       .  A
C763        C768   1.405       .  A
C763        H770   1.083       .  S
C764        C765   1.420       .  A
C765        C766   1.410       .  A
C765        C772   1.517       .  S
C766        C767   1.403       .  A
C766        H771   1.084       .  S
C767        C768   1.416       .  A
C768        C769   1.520       .  S
C769        F773   1.384       .  S
C769        F774   1.382   1_565  S
C769        F775   1.382       .  S
C772        F776   1.381       .  S
C772        F777   1.384       .  S
C772        F778   1.385       .  S
C779        C780   1.402       .  A
C779        C784   1.410       .  A
C779        H786   1.083       .  S
C780        C781   1.413       .  A
C781        C782   1.406       .  A
C781        C788   1.516       .  S
C782        C783   1.405       .  A
C782        H787   1.083       .  S
C783        C784   1.423       .  A
C784        C785   1.521       .  S
C785        F789   1.385       .  S
C785        F790   1.383       .  S
C785        F791   1.382       .  S
C788        F792   1.384       .  S
C788        F793   1.381       .  S
C788        F794   1.383       .  S
C795        C796   1.396       .  A
C795        C800   1.408       .  A
C795        H802   1.083       .  S
C796        C797   1.413       .  A
C797        C798   1.412       .  A
C797        C804   1.518       .  S
C798        C799   1.412       .  A
C798        H803   1.082       .  S
C799        C800   1.429       .  A
C800        C801   1.517       .  S
C801        F805   1.385   1_565  S
C801        F806   1.383       .  S
C801        F807   1.381   1_565  S
C804        F808   1.382       .  S
C804        F809   1.384       .  S
C804        F810   1.384       .  S
C811        C812   1.411       .  A
C811        C816   1.410       .  A
C811        H818   1.083       .  S
C812        C813   1.424       .  A
C813        C814   1.406       .  A
C813        C820   1.516       .  S
C814        C815   1.398       .  A
C814        H819   1.083       .  S
C815        C816   1.410       .  A
C816        C817   1.516       .  S
C817        F821   1.384       .  S
C817        F822   1.383       .  S
C817        F823   1.383       .  S
C820        F824   1.380       .  S
C820        F825   1.382       .  S
C820        F826   1.385       .  S
C827        C828   1.400       .  A
C827        C832   1.405       .  A
C827        H834   1.083       .  S
C828        C829   1.414       .  A
C829        C830   1.411       .  A
C829        C836   1.516       .  S
C830        C831   1.406       .  A
C830        H835   1.083       .  S
C831        C832   1.420       .  A
C832        C833   1.516       .  S
C833        F837   1.385       .  S
C833        F838   1.383       .  S
C833        F839   1.378       .  S
C836        F840   1.383       .  S
C836        F841   1.382       .  S
C836        F842   1.384       .  S
C843        C844   1.417       .  A
C843        C848   1.415       .  A
C843        H850   1.082       .  S
C844        C845   1.446       .  A
C845        C846   1.408       .  A
C845        C852   1.531       .  S
C846        C847   1.392       .  A
C846        H851   1.086       .  S
C847        C848   1.409       .  A
C848        C849   1.517       .  S
C849        F853   1.384       .  S
C849        F854   1.383       .  S
C849        F855   1.384       .  S
C852        F856   1.370       .  S
C852        F857   1.384       .  S
C852        F858   1.382       .  S
C859        C860   1.410       .  A
C859        C864   1.410       .  A
C859        H866   1.083       .  S
C860        C861   1.422       .  A
C861        C862   1.402       .  A
C861        C868   1.512       .  S
C862        C863   1.396       .  A
C862        H867   1.084       .  S
C863        C864   1.411       .  A
C864        C865   1.516       .  S
C865        F869   1.384       .  S
C865        F870   1.383       .  S
C865        F871   1.382   1_455  S
C868        F872   1.380       .  S
C868        F873   1.382       .  S
C868        F874   1.385       .  S
C875        C876   1.406       .  A
C875        C880   1.411       .  A
C875        H882   1.084       .  S
C876        C877   1.420       .  A
C877        C878   1.405       .  A
C877        C884   1.515       .  S
C878        C879   1.401       .  A
C878        H883   1.084       .  S
C879        C880   1.417       .  A
C880        C881   1.516       .  S
C881        F885   1.383       .  S
C881        F886   1.382       .  S
C881        F887   1.383       .  S
C884        F888   1.383       .  S
C884        F889   1.373       .  S
C884        F890   1.385       .  S
C891        C892   1.409       .  A
C891        C896   1.415       .  A
C891        H898   1.083       .  S
C892        C893   1.424       .  A
C893        C894   1.407       .  A
C893        C900   1.518       .  S
C894        C895   1.401       .  A
C894        H899   1.083       .  S
C895        C896   1.421       .  A
C896        C897   1.521       .  S
C897        F901   1.385       .  S
C897        F902   1.383       .  S
C897        F903   1.381       .  S
C900        F904   1.382       .  S
C900        F905   1.381   1_455  S
C900        F906   1.385       .  S
C907        C908   1.405       .  A
C907        C912   1.409       .  A
C907        H914   1.083       .  S
C908        C909   1.421       .  A
C909        C910   1.407       .  A
C909        C916   1.521       .  S
C910        C911   1.401       .  A
C910        H915   1.083       .  S
C911        C912   1.414       .  A
C912        C913   1.516       .  S
C913        F917   1.382       .  S
C913        F918   1.383       .  S
C913        F919   1.384       .  S
C916        F920   1.384       .  S
C916        F921   1.380       .  S
C916        F922   1.384       .  S
C923        C924   1.407       .  A
C923        C928   1.408       .  A
C923        H930   1.081       .  S
C924        C925   1.420       .  A
C925        C926   1.407       .  A
C925        C932   1.514       .  S
C926        C927   1.401       .  A
C926        H931   1.085       .  S
C927        C928   1.416       .  A
C928        C929   1.519       .  S
C929        F933   1.385       .  S
C929        F934   1.383       .  S
C929        F935   1.382       .  S
C932        F936   1.382       .  S
C932        F937   1.382       .  S
C932        F938   1.384       .  S
C939        C940   1.402       .  A
C939        C944   1.408       .  A
C939        H946   1.083       .  S
C940        C941   1.418       .  A
C941        C942   1.413       .  A
C941        C948   1.516       .  S
C942        C943   1.407       .  A
C942        H947   1.083       .  S
C943        C944   1.427       .  A
C944        C945   1.521       .  S
C945        F949   1.385       .  S
C945        F950   1.383       .  S
C945        F951   1.382       .  S
C948        F952   1.383       .  S
C948        F953   1.380       .  S
C948        F954   1.384       .  S
C955        C956   1.404       .  A
C955        C960   1.407       .  A
C955        H962   1.083       .  S
C956        C957   1.420       .  A
C957        C958   1.404       .  A
C957        C964   1.517       .  S
C958        C959   1.400       .  A
C958        H963   1.083       .  S
C959        C960   1.413       .  A
C960        C961   1.516       .  S
C961        F965   1.385       .  S
C961        F966   1.382       .  S
C961        F967   1.382       .  S
C964        F968   1.380       .  S
C964        F969   1.382       .  S
C964        F970   1.386       .  S
C971        C972   1.406       .  A
C971        C976   1.412       .  A
C971        H978   1.083       .  S
C972        C973   1.421       .  A
C973        C974   1.400       .  A
C973        C980   1.520       .  S
C974        C975   1.400       .  A
C974        H979   1.086       .  S
C975        C976   1.416       .  A
C976        C977   1.518       .  S
C977        F981   1.383       .  S
C977        F982   1.381       .  S
C977        F983   1.384       .  S
C980        F984   1.378       .  S
C980        F985   1.382       .  S
C980        F986   1.384       .  S
C987        C988   1.406       .  A
C987        C992   1.416       .  A
C987        H994   1.083       .  S
C988        C989   1.416       .  A
C989        C990   1.406       .  A
C989        C996   1.523       .  S
C990        C991   1.410       .  A
C990        H995   1.083       .  S
C991        C992   1.423       .  A
C992        C993   1.518       .  S
C993        F997   1.385       .  S
C993        F998   1.383       .  S
C993        F999   1.382       .  S
C996       F1000   1.383       .  S
C996       F1001   1.381       .  S
C996       F1002   1.385   1_565  S
C1003      C1004   1.400       .  A
C1003      C1008   1.404       .  A
C1003      H1010   1.083       .  S
C1004      C1005   1.413       .  A
C1005      C1006   1.410       .  A
C1005      C1012   1.517       .  S
C1006      C1007   1.406       .  A
C1006      H1011   1.083       .  S
C1007      C1008   1.420       .  A
C1008      C1009   1.520       .  S
C1009      F1013   1.385       .  S
C1009      F1014   1.381       .  S
C1009      F1015   1.383       .  S
C1012      F1016   1.383       .  S
C1012      F1017   1.383       .  S
C1012      F1018   1.385       .  S
C1019      C1020   1.403       .  A
C1019      C1024   1.408       .  A
C1019      H1026   1.084       .  S
C1020      C1021   1.417       .  A
C1021      C1022   1.407       .  A
C1021      C1028   1.520       .  S
C1022      C1023   1.404       .  A
C1022      H1027   1.083       .  S
C1023      C1024   1.419       .  A
C1024      C1025   1.517       .  S
C1025      F1029   1.383       .  S
C1025      F1030   1.383       .  S
C1025      F1031   1.383       .  S
C1028      F1032   1.384       .  S
C1028      F1033   1.382       .  S
C1028      F1034   1.382   1_455  S
C1035      C1036   1.400       .  A
C1035      C1040   1.412       .  A
C1035      H1042   1.083       .  S
C1036      C1037   1.412       .  A
C1037      C1038   1.405       .  A
C1037      C1044   1.519       .  S
C1038      C1039   1.412       .  A
C1038      H1043   1.082   1_455  S
C1039      C1040   1.430       .  A
C1040      C1041   1.520       .  S
C1041      F1045   1.385       .  S
C1041      F1046   1.383       .  S
C1041      F1047   1.383       .  S
C1044      F1048   1.383       .  S
C1044      F1049   1.382       .  S
C1044      F1050   1.385   1_455  S
C1051      C1052   1.403       .  A
C1051      C1056   1.405       .  A
C1051      H1058   1.083       .  S
C1052      C1053   1.418       .  A
C1053      C1054   1.412       .  A
C1053      C1060   1.519       .  S
C1054      C1055   1.406       .  A
C1054      H1059   1.083       .  S
C1055      C1056   1.420       .  A
C1056      C1057   1.519       .  S
C1057      F1061   1.384       .  S
C1057      F1062   1.379       .  S
C1057      F1063   1.383       .  S
C1060      F1064   1.383       .  S
C1060      F1065   1.380       .  S
C1060      F1066   1.385       .  S
C1067      C1068   1.406       .  A
C1067      C1072   1.411       .  A
C1067      H1074   1.083       .  S
C1068      C1069   1.423       .  A
C1069      C1070   1.408       .  A
C1069      C1076   1.520       .  S
C1070      C1071   1.400       .  A
C1070      H1075   1.083       .  S
C1071      C1072   1.414       .  A
C1072      C1073   1.516       .  S
C1073      F1077   1.384       .  S
C1073      F1078   1.383       .  S
C1073      F1079   1.382       .  S
C1076      F1080   1.380       .  S
C1076      F1081   1.383       .  S
C1076      F1082   1.385       .  S
C1083      C1084   1.408       .  A
C1083      C1088   1.414       .  A
C1083      H1090   1.083       .  S
C1084      C1085   1.429       .  A
C1085      C1086   1.411       .  A
C1085      C1092   1.523       .  S
C1086      C1087   1.402       .  A
C1086      H1091   1.083       .  S
C1087      C1088   1.418       .  A
C1088      C1089   1.518       .  S
C1089      F1093   1.385       .  S
C1089      F1094   1.383       .  S
C1089      F1095   1.381       .  S
C1092      F1096   1.383       .  S
C1092      F1097   1.383       .  S
C1092      F1098   1.385       .  S
C1099      C1100   1.402       .  A
C1099      C1104   1.409       .  A
C1099      H1106   1.083       .  S
C1100      C1101   1.416       .  A
C1101      C1102   1.416       .  A
C1101      C1108   1.516       .  S
C1102      C1103   1.407       .  A
C1102      H1107   1.083       .  S
C1103      C1104   1.419       .  A
C1104      C1105   1.518       .  S
C1105      F1109   1.384       .  S
C1105      F1110   1.380   1_565  S
C1105      F1111   1.383       .  S
C1108      F1112   1.382       .  S
C1108      F1113   1.384       .  S
C1108      F1114   1.384       .  S
C1115      C1116   1.406       .  A
C1115      C1120   1.411       .  A
C1115      H1122   1.084       .  S
C1116      C1117   1.418       .  A
C1117      C1118   1.404       .  A
C1117      C1124   1.517       .  S
C1118      C1119   1.405       .  A
C1118      H1123   1.085       .  S
C1119      C1120   1.422       .  A
C1120      C1121   1.518       .  S
C1121      F1125   1.385       .  S
C1121      F1126   1.383       .  S
C1121      F1127   1.382       .  S
C1124      F1128   1.379       .  S
C1124      F1129   1.383       .  S
C1124      F1130   1.384       .  S
C1131      C1132   1.415       .  A
C1131      C1136   1.410       .  A
C1131      H1138   1.082       .  S
C1132      C1133   1.431       .  A
C1133      C1134   1.414       .  A
C1133      C1140   1.519       .  S
C1134      C1135   1.400       .  A
C1134      H1139   1.083       .  S
C1135      C1136   1.413       .  A
C1136      C1137   1.519       .  S
C1137      F1141   1.385       .  S
C1137      F1142   1.383       .  S
C1137      F1143   1.382       .  S
C1140      F1144   1.381       .  S
C1140      F1145   1.383       .  S
C1140      F1146   1.385       .  S
C1147      C1148   1.406       .  A
C1147      C1152   1.411       .  A
C1147      H1154   1.083       .  S
C1148      C1149   1.421       .  A
C1149      C1150   1.407       .  A
C1149      C1156   1.521       .  S
C1150      C1151   1.401       .  A
C1150      H1155   1.083       .  S
C1151      C1152   1.414       .  A
C1152      C1153   1.516       .  S
C1153      F1157   1.383       .  S
C1153      F1158   1.382       .  S
C1153      F1159   1.384       .  S
C1156      F1160   1.383       .  S
C1156      F1161   1.381       .  S
C1156      F1162   1.385       .  S
C1163      C1164   1.403       .  A
C1163      C1168   1.404       .  A
C1163      H1170   1.083       .  S
C1164      C1165   1.418       .  A
C1165      C1166   1.410       .  A
C1165      C1172   1.516       .  S
C1166      C1167   1.402       .  A
C1166      H1171   1.083       .  S
C1167      C1168   1.415       .  A
C1168      C1169   1.519       .  S
C1169      F1173   1.385       .  S
C1169      F1174   1.381   1_556  S
C1169      F1175   1.383       .  S
C1172      F1176   1.381       .  S
C1172      F1177   1.383       .  S
C1172      F1178   1.385       .  S
C1179      C1180   1.401       .  A
C1179      C1184   1.415       .  A
C1179      H1186   1.083       .  S
C1180      C1181   1.412       .  A
C1181      C1182   1.408       .  A
C1181      C1188   1.521       .  S
C1182      C1183   1.417       .  A
C1182      H1187   1.081       .  S
C1183      C1184   1.428       .  A
C1184      C1185   1.518       .  S
C1185      F1189   1.385       .  S
C1185      F1190   1.383       .  S
C1185      F1191   1.382       .  S
C1188      F1192   1.383       .  S
C1188      F1193   1.382       .  S
C1188      F1194   1.385       .  S
C1195      C1196   1.404       .  A
C1195      C1200   1.404       .  A
C1195      H1202   1.084       .  S
C1196      C1197   1.424       .  A
C1197      C1198   1.405       .  A
C1197      C1204   1.523       .  S
C1198      C1199   1.399       .  A
C1198      H1203   1.083       .  S
C1199      C1200   1.410       .  A
C1200      C1201   1.514       .  S
C1201      F1205   1.382   1_556  S
C1201      F1206   1.383       .  S
C1201      F1207   1.384       .  S
C1204      F1208   1.383       .  S
C1204      F1209   1.381       .  S
C1204      F1210   1.385       .  S
C1211      C1212   1.405       .  A
C1211      C1216   1.411       .  A
C1211      H1218   1.083       .  S
C1212      C1213   1.415       .  A
C1213      C1214   1.404       .  A
C1213      C1220   1.519       .  S
C1214      C1215   1.403       .  A
C1214      H1219   1.083       .  S
C1215      C1216   1.415       .  A
C1216      C1217   1.517       .  S
C1217      F1221   1.384       .  S
C1217      F1222   1.381       .  S
C1217      F1223   1.384       .  S
C1220      F1224   1.382       .  S
C1220      F1225   1.382       .  S
C1220      F1226   1.385       .  S
C1227      C1228   1.403       .  A
C1227      C1232   1.413       .  A
C1227      H1234   1.083       .  S
C1228      C1229   1.420       .  A
C1229      C1230   1.412       .  A
C1229      C1236   1.522   1_556  S
C1230      C1231   1.410       .  A
C1230      H1235   1.083   1_556  S
C1231      C1232   1.424       .  A
C1232      C1233   1.518       .  S
C1233      F1237   1.384       .  S
C1233      F1238   1.383       .  S
C1233      F1239   1.382       .  S
C1236      F1240   1.383   1_554  S
C1236      F1241   1.382       .  S
C1236      F1242   1.385       .  S
C1243      C1244   1.402       .  A
C1243      C1248   1.403       .  A
C1243      H1250   1.083       .  S
C1244      C1245   1.416       .  A
C1245      C1246   1.410       .  A
C1245      C1252   1.516       .  S
C1246      C1247   1.403       .  A
C1246      H1251   1.083       .  S
C1247      C1248   1.416       .  A
C1248      C1249   1.521       .  S
C1249      F1253   1.382       .  S
C1249      F1254   1.384       .  S
C1249      F1255   1.383       .  S
C1252      F1256   1.383       .  S
C1252      F1257   1.382       .  S
C1252      F1258   1.385       .  S
C1259      C1260   1.404       .  A
C1259      C1264   1.409       .  A
C1259      H1266   1.083       .  S
C1260      C1261   1.421       .  A
C1261      C1262   1.401       .  A
C1261      C1268   1.521       .  S
C1262      C1263   1.399       .  A
C1262      H1267   1.083       .  S
C1263      C1264   1.414       .  A
C1264      C1265   1.516       .  S
C1265      F1269   1.385       .  S
C1265      F1270   1.382       .  S
C1265      F1271   1.383       .  S
C1268      F1272   1.380       .  S
C1268      F1273   1.379       .  S
C1268      F1274   1.385       .  S
C1275      C1276   1.406       .  A
C1275      C1280   1.414       .  A
C1275      H1282   1.083       .  S
C1276      C1277   1.422       .  A
C1277      C1278   1.406       .  A
C1277      C1284   1.521       .  S
C1278      C1279   1.404       .  A
C1278      H1283   1.083       .  S
C1279      C1280   1.420       .  A
C1280      C1281   1.518       .  S
C1281      F1285   1.384       .  S
C1281      F1286   1.382       .  S
C1281      F1287   1.384       .  S
C1284      F1288   1.381       .  S
C1284      F1289   1.382       .  S
C1284      F1290   1.385       .  S
C1291      C1292   1.399       .  A
C1291      C1296   1.404       .  A
C1291      H1298   1.083       .  S
C1292      C1293   1.411       .  A
C1293      C1294   1.406       .  A
C1293      C1300   1.517       .  S
C1294      C1295   1.405       .  A
C1294      H1299   1.083       .  S
C1295      C1296   1.423       .  A
C1296      C1297   1.523       .  S
C1297      F1301   1.385       .  S
C1297      F1302   1.381       .  S
C1297      F1303   1.383       .  S
C1300      F1304   1.383       .  S
C1300      F1305   1.383   1_556  S
C1300      F1306   1.384       .  S
C1307      C1308   1.405       .  A
C1307      C1312   1.404       .  A
C1307      H1314   1.083       .  S
C1308      C1309   1.419       .  A
C1309      C1310   1.408       .  A
C1309      C1316   1.518       .  S
C1310      C1311   1.403       .  A
C1310      H1315   1.084       .  S
C1311      C1312   1.416       .  A
C1312      C1313   1.521       .  S
C1313      F1317   1.384       .  S
C1313      F1318   1.382       .  S
C1313      F1319   1.383       .  S
C1316      F1320   1.382       .  S
C1316      F1321   1.383       .  S
C1316      F1322   1.383       .  S
C1323      C1324   1.415       .  A
C1323      C1328   1.409       .  A
C1323      H1330   1.082   1_556  S
C1324      C1325   1.427       .  A
C1325      C1326   1.414       .  A
C1325      C1332   1.517       .  S
C1326      C1327   1.401       .  A
C1326      H1331   1.083       .  S
C1327      C1328   1.414       .  A
C1328      C1329   1.522       .  S
C1329      F1333   1.385   1_556  S
C1329      F1334   1.381   1_556  S
C1329      F1335   1.383       .  S
C1332      F1336   1.383       .  S
C1332      F1337   1.382       .  S
C1332      F1338   1.385       .  S
C1339      C1340   1.404       .  A
C1339      C1344   1.405       .  A
C1339      H1346   1.083       .  S
C1340      C1341   1.416       .  A
C1341      C1342   1.410       .  A
C1341      C1348   1.516       .  S
C1342      C1343   1.403       .  A
C1342      H1347   1.083       .  S
C1343      C1344   1.416       .  A
C1344      C1345   1.520       .  S
C1345      F1349   1.385       .  S
C1345      F1350   1.382       .  S
C1345      F1351   1.382   1_556  S
C1348      F1352   1.383       .  S
C1348      F1353   1.381       .  S
C1348      F1354   1.385       .  S
C1355      C1356   1.405       .  A
C1355      C1360   1.408       .  A
C1355      H1362   1.083       .  S
C1356      C1357   1.421       .  A
C1357      C1358   1.406       .  A
C1357      C1364   1.521       .  S
C1358      C1359   1.400       .  A
C1358      H1363   1.083       .  S
C1359      C1360   1.413       .  A
C1360      C1361   1.516       .  S
C1361      F1365   1.384       .  S
C1361      F1366   1.383       .  S
C1361      F1367   1.383       .  S
C1364      F1368   1.381       .  S
C1364      F1369   1.383       .  S
C1364      F1370   1.384       .  S
C1371      C1372   1.401       .  A
C1371      C1376   1.414       .  A
C1371      H1378   1.083       .  S
C1372      C1373   1.413       .  A
C1373      C1374   1.411       .  A
C1373      C1380   1.520       .  S
C1374      C1375   1.415       .  A
C1374      H1379   1.082   1_556  S
C1375      C1376   1.427       .  A
C1376      C1377   1.518       .  S
C1377      F1381   1.385       .  S
C1377      F1382   1.384       .  S
C1377      F1383   1.381       .  S
C1380      F1384   1.383       .  S
C1380      F1385   1.381   1_556  S
C1380      F1386   1.383   1_556  S
C1387      C1388   1.406       .  A
C1387      C1392   1.406       .  A
C1387      H1394   1.082       .  S
C1388      C1389   1.420       .  A
C1389      C1390   1.407       .  A
C1389      C1396   1.517       .  S
C1390      C1391   1.402       .  A
C1390      H1395   1.085       .  S
C1391      C1392   1.417       .  A
C1392      C1393   1.521       .  S
C1393      F1397   1.385       .  S
C1393      F1398   1.381       .  S
C1393      F1399   1.383   1_565  S
C1396      F1400   1.382       .  S
C1396      F1401   1.383       .  S
C1396      F1402   1.384       .  S
C1403      C1404   1.401       .  A
C1403      C1408   1.403       .  A
C1403      H1410   1.084       .  S
C1404      C1405   1.416       .  A
C1405      C1406   1.407       .  A
C1405      C1412   1.516       .  S
C1406      C1407   1.404       .  A
C1406      H1411   1.085       .  S
C1407      C1408   1.418       .  A
C1408      C1409   1.520       .  S
C1409      F1413   1.385       .  S
C1409      F1414   1.381       .  S
C1409      F1415   1.383       .  S
C1412      F1416   1.384       .  S
C1412      F1417   1.382       .  S
C1412      F1418   1.383       .  S
C1419      C1420   1.414       .  A
C1419      C1424   1.409       .  A
C1419      H1426   1.083       .  S
C1420      C1421   1.428       .  A
C1421      C1422   1.413       .  A
C1421      C1428   1.518       .  S
C1422      C1423   1.400       .  A
C1422      H1427   1.083       .  S
C1423      C1424   1.414       .  A
C1424      C1425   1.520       .  S
C1425      F1429   1.383       .  S
C1425      F1430   1.383       .  S
C1425      F1431   1.383       .  S
C1428      F1432   1.383       .  S
C1428      F1433   1.383       .  S
C1428      F1434   1.385       .  S
C1435      C1436   1.398       .  A
C1435      C1440   1.406       .  A
C1435      H1442   1.083       .  S
C1436      C1437   1.412       .  A
C1437      C1438   1.411       .  A
C1437      C1444   1.515       .  S
C1438      C1439   1.409       .  A
C1438      H1443   1.083       .  S
C1439      C1440   1.422       .  A
C1440      C1441   1.515       .  S
C1441      F1445   1.385       .  S
C1441      F1446   1.380       .  S
C1441      F1447   1.383       .  S
C1444      F1448   1.383       .  S
C1444      F1449   1.383   1_455  S
C1444      F1450   1.385       .  S
C1451      C1452   1.400       .  A
C1451      C1456   1.402       .  A
C1451      H1458   1.083       .  S
C1452      C1453   1.414       .  A
C1453      C1454   1.411       .  A
C1453      C1460   1.518       .  S
C1454      C1455   1.407       .  A
C1454      H1459   1.083       .  S
C1455      C1456   1.417       .  A
C1456      C1457   1.515       .  S
C1457      F1461   1.385       .  S
C1457      F1462   1.383       .  S
C1457      F1463   1.373       .  S
C1460      F1464   1.383       .  S
C1460      F1465   1.382       .  S
C1460      F1466   1.384       .  S
C1467      C1468   1.403       .  A
C1467      C1472   1.405   1_455  A
C1467      H1474   1.083       .  S
C1468      C1469   1.421       .  A
C1469      C1470   1.411       .  A
C1469      C1476   1.520       .  S
C1470      C1471   1.405       .  A
C1470      H1475   1.084       .  S
C1471      C1472   1.418   1_455  A
C1472      C1473   1.516       .  S
C1473      F1477   1.385       .  S
C1473      F1478   1.375       .  S
C1473      F1479   1.384       .  S
C1476      F1480   1.381       .  S
C1476      F1481   1.384       .  S
C1476      F1482   1.385       .  S
C1483      C1484   1.402       .  A
C1483      C1488   1.404       .  A
C1483      H1490   1.083       .  S
C1484      C1485   1.417       .  A
C1485      C1486   1.410       .  A
C1485      C1492   1.517       .  S
C1486      C1487   1.403       .  A
C1486      H1491   1.083       .  S
C1487      C1488   1.417       .  A
C1488      C1489   1.519       .  S
C1489      F1493   1.381   1_556  S
C1489      F1494   1.382       .  S
C1489      F1495   1.385       .  S
C1492      F1496   1.381       .  S
C1492      F1497   1.383       .  S
C1492      F1498   1.385       .  S
C1499      C1500   1.405       .  A
C1499      C1504   1.408       .  A
C1499      H1506   1.083       .  S
C1500      C1501   1.417       .  A
C1501      C1502   1.407       .  A
C1501      C1508   1.516       .  S
C1502      C1503   1.402       .  A
C1502      H1507   1.084       .  S
C1503      C1504   1.416       .  A
C1504      C1505   1.518       .  S
C1505      F1509   1.384       .  S
C1505      F1510   1.383       .  S
C1505      F1511   1.380   1_455  S
C1508      F1512   1.383       .  S
C1508      F1513   1.382       .  S
C1508      F1514   1.384       .  S
C1515      C1516   1.413       .  A
C1515      C1520   1.414       .  A
C1515      H1522   1.082       .  S
C1516      C1517   1.433       .  A
C1517      C1518   1.412       .  A
C1517      C1524   1.523   1_556  S
C1518      C1519   1.399       .  A
C1518      H1523   1.083       .  S
C1519      C1520   1.413       .  A
C1520      C1521   1.517       .  S
C1521      F1525   1.384       .  S
C1521      F1526   1.382       .  S
C1521      F1527   1.384       .  S
C1524      F1528   1.383   1_455  S
C1524      F1529   1.383       .  S
C1524      F1530   1.385       .  S
C1531      C1532   1.399       .  A
C1531      C1536   1.403       .  A
C1531      H1538   1.083       .  S
C1532      C1533   1.414       .  A
C1533      C1534   1.408       .  A
C1533      C1540   1.516       .  S
C1534      C1535   1.405       .  A
C1534      H1539   1.083       .  S
C1535      C1536   1.419       .  A
C1536      C1537   1.520       .  S
C1537      F1541   1.385       .  S
C1537      F1542   1.383       .  S
C1537      F1543   1.380       .  S
C1540      F1544   1.382   1_556  S
C1540      F1545   1.383       .  S
C1540      F1546   1.385       .  S
C1547      C1548   1.405       .  A
C1547      C1552   1.412       .  A
C1547      H1554   1.083       .  S
C1548      C1549   1.417       .  A
C1549      C1550   1.400       .  A
C1549      C1556   1.516       .  S
C1550      C1551   1.400       .  A
C1550      H1555   1.084       .  S
C1551      C1552   1.416       .  A
C1552      C1553   1.517       .  S
C1553      F1557   1.384       .  S
C1553      F1558   1.381       .  S
C1553      F1559   1.384       .  S
C1556      F1560   1.383       .  S
C1556      F1561   1.382       .  S
C1556      F1562   1.384       .  S
C1563      C1564   1.399       .  A
C1563      C1568   1.412       .  A
C1563      H1570   1.083       .  S
C1564      C1565   1.410       .  A
C1565      C1566   1.404       .  A
C1565      C1572   1.520       .  S
C1566      C1567   1.414       .  A
C1566      H1571   1.081       .  S
C1567      C1568   1.429       .  A
C1568      C1569   1.519       .  S
C1569      F1573   1.385       .  S
C1569      F1574   1.383       .  S
C1569      F1575   1.382       .  S
C1572      F1576   1.382       .  S
C1572      F1577   1.382       .  S
C1572      F1578   1.385       .  S
C1579      C1580   1.405       .  A
C1579      C1584   1.407       .  A
C1579      H1586   1.083       .  S
C1580      C1581   1.421       .  A
C1581      C1582   1.407       .  A
C1581      C1588   1.517       .  S
C1582      C1583   1.400       .  A
C1582      H1587   1.084       .  S
C1583      C1584   1.416       .  A
C1584      C1585   1.520       .  S
C1585      F1589   1.384       .  S
C1585      F1590   1.382       .  S
C1585      F1591   1.382       .  S
C1588      F1592   1.382       .  S
C1588      F1593   1.383       .  S
C1588      F1594   1.384       .  S
C1595      C1596   1.405       .  A
C1595      C1600   1.408       .  A
C1595      H1602   1.083       .  S
C1596      C1597   1.421       .  A
C1597      C1598   1.408       .  A
C1597      C1604   1.520       .  S
C1598      C1599   1.401       .  A
C1598      H1603   1.083       .  S
C1599      C1600   1.412       .  A
C1600      C1601   1.516       .  S
C1601      F1605   1.383       .  S
C1601      F1606   1.384       .  S
C1601      F1607   1.383       .  S
C1604      F1608   1.382       .  S
C1604      F1609   1.383       .  S
C1604      F1610   1.385       .  S
C1611      C1612   1.403       .  A
C1611      C1616   1.408       .  A
C1611      H1618   1.083       .  S
C1612      C1613   1.417       .  A
C1613      C1614   1.409       .  A
C1613      C1620   1.519       .  S
C1614      C1615   1.409       .  A
C1614      H1619   1.083       .  S
C1615      C1616   1.426       .  A
C1616      C1617   1.525       .  S
C1617      F1621   1.385       .  S
C1617      F1622   1.380       .  S
C1617      F1623   1.383       .  S
C1620      F1624   1.380       .  S
C1620      F1625   1.383       .  S
C1620      F1626   1.385       .  S
C1627      C1628   1.408       .  A
C1627      C1632   1.409       .  A
C1627      H1634   1.083       .  S
C1628      C1629   1.423       .  A
C1629      C1630   1.405       .  A
C1629      C1636   1.520       .  S
C1630      C1631   1.399       .  A
C1630      H1635   1.083       .  S
C1631      C1632   1.412       .  A
C1632      C1633   1.516       .  S
C1633      F1637   1.385       .  S
C1633      F1638   1.383   1_455  S
C1633      F1639   1.383       .  S
C1636      F1640   1.382       .  S
C1636      F1641   1.380       .  S
C1636      F1642   1.385       .  S
C1643      C1644   1.404       .  A
C1643      C1648   1.402       .  A
C1643      H1650   1.085       .  S
C1644      C1645   1.415       .  A
C1645      C1646   1.409       .  A
C1645      C1652   1.516       .  S
C1646      C1647   1.404       .  A
C1646      H1651   1.083       .  S
C1647      C1648   1.418       .  A
C1648      C1649   1.521       .  S
C1649      F1653   1.382       .  S
C1649      F1654   1.380       .  S
C1649      F1655   1.385       .  S
C1652      F1656   1.381       .  S
C1652      F1657   1.383       .  S
C1652      F1658   1.385       .  S
C1659      C1660   1.402       .  A
C1659      C1664   1.404       .  A
C1659      H1666   1.083       .  S
C1660      C1661   1.421       .  A
C1661      C1662   1.409       .  A
C1661      C1668   1.519       .  S
C1662      C1663   1.405       .  A
C1662      H1667   1.084       .  S
C1663      C1664   1.424       .  A
C1664      C1665   1.522   1_455  S
C1665      F1669   1.384       .  S
C1665      F1670   1.382       .  S
C1665      F1671   1.382       .  S
C1668      F1672   1.382       .  S
C1668      F1673   1.383       .  S
C1668      F1674   1.384       .  S
C1675      C1676   1.405       .  A
C1675      C1680   1.413       .  A
C1675      H1682   1.083       .  S
C1676      C1677   1.418       .  A
C1677      C1678   1.407       .  A
C1677      C1684   1.519       .  S
C1678      C1679   1.402       .  A
C1678      H1683   1.083       .  S
C1679      C1680   1.415       .  A
C1680      C1681   1.516       .  S
C1681      F1685   1.384       .  S
C1681      F1686   1.382       .  S
C1681      F1687   1.384       .  S
C1684      F1688   1.382       .  S
C1684      F1689   1.383       .  S
C1684      F1690   1.385       .  S
C1691      C1692   1.404       .  A
C1691      C1696   1.403       .  A
C1691      H1698   1.083       .  S
C1692      C1693   1.417       .  A
C1693      C1694   1.408       .  A
C1693      C1700   1.516       .  S
C1694      C1695   1.401       .  A
C1694      H1699   1.083       .  S
C1695      C1696   1.415       .  A
C1696      C1697   1.519       .  S
C1697      F1701   1.382       .  S
C1697      F1702   1.385       .  S
C1697      F1703   1.383       .  S
C1700      F1704   1.383       .  S
C1700      F1705   1.381       .  S
C1700      F1706   1.385       .  S
C1707      C1708   1.400       .  A
C1707      C1712   1.413       .  A
C1707      H1714   1.083       .  S
C1708      C1709   1.417       .  A
C1709      C1710   1.412       .  A
C1709      C1716   1.521       .  S
C1710      C1711   1.412       .  A
C1710      H1715   1.083       .  S
C1711      C1712   1.428       .  A
C1712      C1713   1.519       .  S
C1713      F1717   1.385       .  S
C1713      F1718   1.384       .  S
C1713      F1719   1.383       .  S
C1716      F1720   1.384       .  S
C1716      F1721   1.382       .  S
C1716      F1722   1.384       .  S
C1723      C1724   1.406       .  A
C1723      C1728   1.410       .  A
C1723      H1730   1.083       .  S
C1724      C1725   1.422       .  A
C1725      C1726   1.399       .  A
C1725      C1732   1.518       .  S
C1726      C1727   1.397       .  A
C1726      H1731   1.085       .  S
C1727      C1728   1.412       .  A
C1728      C1729   1.515       .  S
C1729      F1733   1.384       .  S
C1729      F1734   1.383       .  S
C1729      F1735   1.383       .  S
C1732      F1736   1.377       .  S
C1732      F1737   1.382       .  S
C1732      F1738   1.385       .  S
C1739      C1740   1.407       .  A
C1739      C1744   1.409       .  A
C1739      H1746   1.083       .  S
C1740      C1741   1.424       .  A
C1741      C1742   1.404       .  A
C1741      C1748   1.516       .  S
C1742      C1743   1.397       .  A
C1742      H1747   1.083       .  S
C1743      C1744   1.412       .  A
C1744      C1745   1.516       .  S
C1745      F1749   1.384       .  S
C1745      F1750   1.383       .  S
C1745      F1751   1.383   1_556  S
C1748      F1752   1.381       .  S
C1748      F1753   1.385       .  S
C1748      F1754   1.378       .  S
C1755      C1756   1.402       .  A
C1755      C1760   1.414       .  A
C1755      H1762   1.083       .  S
C1756      C1757   1.412       .  A
C1757      C1758   1.404       .  A
C1757      C1764   1.521       .  S
C1758      C1759   1.413       .  A
C1758      H1763   1.082       .  S
C1759      C1760   1.426       .  A
C1760      C1761   1.518       .  S
C1761      F1765   1.385       .  S
C1761      F1766   1.383       .  S
C1761      F1767   1.383       .  S
C1764      F1768   1.384       .  S
C1764      F1769   1.382       .  S
C1764      F1770   1.385       .  S
C1771      C1772   1.404       .  A
C1771      C1776   1.405       .  A
C1771      H1778   1.082       .  S
C1772      C1773   1.418       .  A
C1773      C1774   1.409       .  A
C1773      C1780   1.517       .  S
C1774      C1775   1.404       .  A
C1774      H1779   1.084       .  S
C1775      C1776   1.417       .  A
C1776      C1777   1.522       .  S
C1777      F1781   1.384       .  S
C1777      F1782   1.382       .  S
C1777      F1783   1.382   1_556  S
C1780      F1784   1.383       .  S
C1780      F1785   1.382       .  S
C1780      F1786   1.384       .  S
C1787      C1788   1.405       .  A
C1787      C1792   1.409       .  A
C1787      H1794   1.083       .  S
C1788      C1789   1.419       .  A
C1789      C1790   1.406       .  A
C1789      C1796   1.520       .  S
C1790      C1791   1.402       .  A
C1790      H1795   1.083       .  S
C1791      C1792   1.413       .  A
C1792      C1793   1.516       .  S
C1793      F1797   1.383   1_455  S
C1793      F1798   1.385       .  S
C1793      F1799   1.382       .  S
C1796      F1800   1.380       .  S
C1796      F1801   1.383       .  S
C1796      F1802   1.385       .  S
C1803      C1804   1.403       .  A
C1803      C1808   1.409       .  A
C1803      H1810   1.083       .  S
C1804      C1805   1.417       .  A
C1805      C1806   1.408       .  A
C1805      C1812   1.519       .  S
C1806      C1807   1.406       .  A
C1806      H1811   1.083       .  S
C1807      C1808   1.424       .  A
C1808      C1809   1.519   1_556  S
C1809      F1813   1.385       .  S
C1809      F1814   1.383       .  S
C1809      F1815   1.382   1_455  S
C1812      F1816   1.383       .  S
C1812      F1817   1.381       .  S
C1812      F1818   1.385       .  S
