geometry optimzed in LAMMPS
_audit_creation_date              2020-11-30 
_audit_creation_method            'lammps2cif' 
_symmetry_space_group_name_H-M    'P1' 
_symmetry_Int_Tables_number       1 
_symmetry_cell_setting            triclinic 
loop_ 
_symmetry_equiv_pos_as_xyz 
  x,y,z 
_cell_length_a                    40.15316881446003 
_cell_length_b                    39.74195534328127 
_cell_length_c                    40.461611774271105 
_cell_angle_alpha                 94.45197754699318 
_cell_angle_beta                  91.55910676367051 
_cell_angle_gamma                 91.09717879513427 
loop_ 
_atom_site_label 
_atom_site_type_symbol 
_atom_site_fract_x 
_atom_site_fract_y 
_atom_site_fract_z 
_atom_site_charge 
C1          C  0.01176793  0.99898894  0.22789767     0.00630
C2          C  0.48343003  0.47867017  0.23057036     0.00630
Zn3        Zn  0.49284372  0.20639856  0.27118545     1.49720
Zn4        Zn  0.03207457  0.21939918  0.21062411     1.49360
Zn5        Zn  0.46014980  0.25612188  0.21464164     1.49110
Zn6        Zn  0.00926740  0.27635047  0.27298965     1.49480
O7          O  0.49839661  0.23990773  0.24008334    -1.84060
O8          O  0.50753983  0.16127423  0.25813773    -0.74690
O9          O  0.01923911  0.22787967  0.16247905    -0.74510
O10         O  0.42004588  0.22932452  0.23168942    -0.74030
O11         O  0.03287764  0.16584150  0.21125604    -0.74710
O12         O  0.44689098  0.19914769  0.26802040    -0.74310
O13         O  0.46673906  0.24513037  0.16475678    -0.74890
O14         O  0.99473824  0.32077348  0.26011167    -0.74280
O15         O  0.07587037  0.24448553  0.22700836    -0.75040
O16         O  0.45787316  0.30963750  0.21915807    -0.74430
O17         O  0.05573584  0.27914850  0.26772819    -0.74900
O18         O  0.00045178  0.27136803  0.32283404    -0.74810
O19         O  0.50239203  0.21610519  0.32004395    -0.74590
C20         C  0.02093889  0.14738476  0.23289484     0.77200
C21         C  0.99210505  0.23606707  0.14811445     0.77690
C22         C  0.42056936  0.20726925  0.25334163     0.76650
C23         C  0.47524430  0.33108620  0.23806609     0.77020
C24         C  0.07958965  0.26764379  0.25088653     0.78160
C25         C  0.50072320  0.24399983  0.33731363     0.77210
Zn26       Zn  0.28192065  0.48481432  0.26904427     1.49720
Zn27       Zn  0.27324934  0.03432815  0.21573587     1.49360
Zn28       Zn  0.22612741  0.46656955  0.20701828     1.49110
Zn29       Zn  0.21531234  0.01654821  0.26968173     1.49480
O30         O  0.24823346  0.50061200  0.23919448    -1.84060
O31         O  0.32687530  0.50818367  0.26878529    -0.74690
O32         O  0.26028245  0.02921246  0.16520359    -0.74510
O33         O  0.25721516  0.42555848  0.20504970    -0.74030
O34         O  0.32502689  0.02575298  0.21870374    -0.74710
O35         O  0.29280693  0.44213118  0.24670899    -0.74310
O36         O  0.22944081  0.48206048  0.16047273    -0.74890
O37         O  0.16968947  0.00313217  0.25373111    -0.74280
O38         O  0.26048262  0.08025866  0.24006387    -0.75040
O39         O  0.17384835  0.46079273  0.21534906    -0.74430
O40         O  0.21916129  0.06503394  0.27247320    -0.74900
O41         O  0.22097724  0.00443155  0.31759146    -0.74810
O42         O  0.27000336  0.48089652  0.31747832    -0.74590
C43         C  0.34209340  0.51598278  0.24325754     0.77200
C44         C  0.24388660  0.00626432  0.14714567     0.77690
C45         C  0.28442892  0.42222093  0.22171339     0.76650
C46         C  0.15585282  0.98028931  0.23412232     0.77020
C47         C  0.23809953  0.08718948  0.26157510     0.78160
C48         C  0.24458972  0.49101767  0.33320340     0.77210
C49         C  0.23165759  0.00696101  0.00125819     0.00630
C50         C  0.23174510  0.48047329  0.47695479     0.00630
C51         C  0.00023287  0.23635991  0.00424546     0.00630
C52         C  0.47612878  0.23782261  0.47954614     0.00630
Zn53       Zn  0.26710709  0.21353138  0.45732073     1.49720
Zn54       Zn  0.21039845  0.21345800  0.01059507     1.49360
Zn55       Zn  0.26963088  0.27270876  0.01300209     1.49110
Zn56       Zn  0.20622980  0.27147553  0.46693302     1.49480
O57         O  0.23841093  0.24236317  0.98690586    -1.84060
O58         O  0.25381720  0.16336852  0.45620637    -0.74690
O59         O  0.22035247  0.22461114  0.05743389    -0.74510
O60         O  0.31801427  0.26168211  0.00731938    -0.74030
O61         O  0.22135896  0.16591244  0.99980043    -0.74710
O62         O  0.31636463  0.21600237  0.47217985    -0.74310
O63         O  0.26014309  0.26506677  0.05829973    -0.74890
O64         O  0.21473054  0.31964362  0.48230151    -0.74280
O65         O  0.16036347  0.21800346  0.00394444    -0.75040
O66         O  0.26359744  0.32292456  0.00837312    -0.74430
O67         O  0.15790479  0.26199554  0.47400012    -0.74900
O68         O  0.21597107  0.26159477  0.42013193    -0.74810
O69         O  0.26284560  0.23522924  0.41383840    -0.74590
C70         C  0.23712177  0.14887759  0.97765762     0.77200
C71         C  0.24053494  0.24581188  0.07247798     0.77690
C72         C  0.33268829  0.23771020  0.49136549     0.76650
C73         C  0.23853347  0.33726497  0.49632803     0.77020
C74         C  0.14354665  0.23967237  0.98954770     0.78160
C75         C  0.24730755  0.26290098  0.41754713     0.77210
Zn76       Zn  0.26666743  0.31807640  0.26764596     1.49720
Zn77       Zn  0.24851006  0.28296942  0.32800432     1.49360
Zn78       Zn  0.25428188  0.24232050  0.27351549     1.49110
Zn79       Zn  0.31949450  0.28159659  0.30528790     1.49480
O80         O  0.27428976  0.28157839  0.29232012    -1.84060
O81         O  0.22362126  0.34068478  0.27820665    -0.74690
O82         O  0.23913127  0.23453862  0.34028803    -0.74510
O83         O  0.24858258  0.24442793  0.22710595    -0.74030
O84         O  0.20839671  0.30296203  0.31291048    -0.74710
O85         O  0.26021678  0.29883142  0.22181689    -0.74310
O86         O  0.21111945  0.23538088  0.29377987    -0.74890
O87         O  0.32815563  0.23231976  0.30822668    -0.74280
O88         O  0.27256991  0.31357360  0.35763155    -0.75040
O89         O  0.28448239  0.20565854  0.28136001    -0.74430
O90         O  0.32655989  0.31235514  0.34843400    -0.74900
O91         O  0.34276611  0.30015568  0.26665373    -0.74810
O92         O  0.30925271  0.34398388  0.27022966    -0.74590
C93         C  0.20119524  0.32485965  0.29276400     0.77200
C94         C  0.22025058  0.21920971  0.31792712     0.77690
C95         C  0.25285187  0.26912481  0.20981310     0.76650
C96         C  0.31294607  0.20536295  0.29576277     0.77020
C97         C  0.30214254  0.32330298  0.36549724     0.78160
C98         C  0.33351455  0.32826857  0.25684136     0.77210
C99         C  0.30107947  0.29420945  0.43114045    -0.20240
C100        C  0.26614231  0.29537587  0.42512419    -0.06810
C101        C  0.25254405  0.32746083  0.41860922     0.14060
C102        C  0.27562198  0.35312824  0.41106332    -0.20300
C103        C  0.30640465  0.34153027  0.39904305    -0.06810
C104        C  0.32170706  0.32005151  0.42023172     0.14050
C105        C  0.35888693  0.31750327  0.42111652    -0.23640
H106        H  0.31233858  0.27169651  0.43919647     0.15340
H107        H  0.26618693  0.37619728  0.40204780     0.15360
C108        C  0.21644983  0.33159237  0.40813373    -0.23590
H109        H  0.36872501  0.32901612  0.44531222     0.05580
H110        H  0.37019604  0.33172529  0.40150689     0.08800
H111        H  0.36639669  0.29075732  0.41732627     0.08800
H112        H  0.19892267  0.32256501  0.42617706     0.08790
H113        H  0.21120389  0.31697917  0.38399290     0.08790
H114        H  0.21085245  0.35845058  0.40502274     0.05560
C115        C  0.26927052  0.23681131  0.12376104    -0.20240
C116        C  0.24131573  0.24889548  0.10768123    -0.06810
C117        C  0.21696683  0.26750706  0.12488246     0.14060
C118        C  0.22152740  0.27425252  0.15883229    -0.20300
C119        C  0.24971671  0.26256145  0.17484755    -0.06810
C120        C  0.27368141  0.24326423  0.15772550     0.14050
C121        C  0.30392902  0.23009491  0.17508912    -0.23640
H122        H  0.28781271  0.22292088  0.10959575     0.15340
H123        H  0.20320173  0.28847834  0.17286698     0.15360
C124        C  0.18698246  0.28091168  0.10732603    -0.23590
H125        H  0.32035615  0.21617436  0.15736136     0.05580
H126        H  0.29609963  0.21252822  0.19358938     0.08800
H127        H  0.31868651  0.25135794  0.18792529     0.08800
H128        H  0.17205071  0.25961389  0.09472977     0.08790
H129        H  0.19517604  0.29807184  0.08858960     0.08790
H130        H  0.17067588  0.29525843  0.12486768     0.05560
C131        C  0.38630864  0.26699678  0.48515877    -0.20240
C132        C  0.36964261  0.23753517  0.49273358    -0.06810
C133        C  0.38849045  0.20934432  0.00028324     0.14060
C134        C  0.42358759  0.21124655  0.99897010    -0.20300
C135        C  0.43997787  0.23975252  0.48780625    -0.06810
C136        C  0.42083659  0.26823568  0.48131174     0.14050
C137        C  0.43548660  0.30042692  0.46997282    -0.23640
H138        H  0.37188629  0.28902339  0.48107149     0.15340
H139        H  0.43810247  0.18949386  0.00427691     0.15360
C140        C  0.37172294  0.17746289  0.00978997    -0.23590
H141        H  0.42570431  0.30426396  0.44467559     0.05580
H142        H  0.42846036  0.32210397  0.48717725     0.08800
H143        H  0.46285058  0.30063414  0.46919705     0.08800
H144        H  0.35534262  0.16655442  0.98898555     0.08790
H145        H  0.35654363  0.18312651  0.03199108     0.08790
H146        H  0.39016336  0.15816960  0.01570102     0.05560
C147        C  0.08872068  0.20930122  0.98300535    -0.20240
C148        C  0.10677831  0.23941022  0.99155355    -0.06810
C149        C  0.08951958  0.26862954  0.50250207     0.14060
C150        C  0.05484067  0.26674586  0.50559809    -0.20300
C151        C  0.03658127  0.23679466  0.99698327    -0.06810
C152        C  0.05375273  0.20777180  0.98479508     0.14050
C153        C  0.03570004  0.17530001  0.97307168    -0.23640
H154        H  0.10205283  0.18702940  0.97425342     0.15340
H155        H  0.04191052  0.28897673  0.51491985     0.15360
C156        C  0.10764928  0.30165082  0.51223688    -0.23590
H157        H  0.05330933  0.15506334  0.96561233     0.05580
H158        H  0.01980604  0.17932803  0.95107321     0.08800
H159        H  0.02015574  0.16604317  0.99268798     0.08800
H160        H  0.11999745  0.31097408  0.49040209     0.08790
H161        H  0.12662912  0.29813734  0.53208240     0.08790
H162        H  0.09041005  0.32145563  0.52170954     0.05560
C163        C  0.25895676  0.43268605  0.00382129    -0.20240
C164        C  0.23212310  0.44441449  0.48517941    -0.06810
C165        C  0.20705335  0.42111212  0.47228606     0.14060
C166        C  0.20912689  0.38730389  0.47893782    -0.20300
C167        C  0.23673960  0.37479495  0.49586103    -0.06810
C168        C  0.26189203  0.39812569  0.00896833     0.14050
C169        C  0.29205964  0.38705234  0.02786228    -0.23640
H170        H  0.27841844  0.45045433  0.01318517     0.15340
H171        H  0.18932418  0.37017202  0.46920129     0.15360
C172        C  0.17803523  0.43101658  0.45080105    -0.23590
H173        H  0.30848442  0.40881119  0.03695739     0.05580
H174        H  0.30699865  0.36984014  0.01151147     0.08800
H175        H  0.28413915  0.37406674  0.04976489     0.08800
H176        H  0.18701827  0.43848708  0.42675618     0.08790
H177        H  0.16409233  0.45178157  0.46339320     0.08790
H178        H  0.15999458  0.40972091  0.44492928     0.05560
C179        C  0.20750841  0.09824551  0.99369159    -0.20240
C180        C  0.23524469  0.11156222  0.97839391    -0.06810
C181        C  0.26119087  0.08966237  0.96852634     0.14060
C182        C  0.25897852  0.05544524  0.97535706    -0.20300
C183        C  0.23155103  0.04262426  0.99174963    -0.06810
C184        C  0.20538731  0.06454893  0.00077609     0.14050
C185        C  0.17440591  0.05374926  0.01763523    -0.23640
H186        H  0.18719714  0.11458030  0.00098340     0.15340
H187        H  0.27925468  0.03880166  0.96887192     0.15360
C188        C  0.29182925  0.10229560  0.95231254    -0.23590
H189        H  0.15205058  0.06015294  0.00280269     0.05580
H190        H  0.17345888  0.06715896  0.04269779     0.08800
H191        H  0.17291028  0.02644658  0.52013285     0.08800
H192        H  0.30457535  0.12240876  0.96888304     0.08790
H193        H  0.28475194  0.11237678  0.42836886     0.08790
H194        H  0.30985295  0.08183372  0.94708624     0.05560
C195        C  0.34161975  0.40139347  0.22700566    -0.20240
C196        C  0.30909675  0.39601814  0.21292181    -0.06810
C197        C  0.30148424  0.36449354  0.19559593     0.14060
C198        C  0.32314279  0.33769347  0.20060070    -0.20300
C199        C  0.34680331  0.34164473  0.22704240    -0.06810
C200        C  0.36111742  0.37389669  0.23362451     0.14050
C201        C  0.39169331  0.37948969  0.25567277    -0.23640
H202        H  0.35007619  0.42636297  0.23684111     0.15340
H203        H  0.31593190  0.31245313  0.19071007     0.15360
C204        C  0.27033590  0.35845102  0.17432133    -0.23590
H205        H  0.40927924  0.39684522  0.24444833     0.05580
H206        H  0.40426484  0.35530002  0.25914252     0.08800
H207        H  0.38475624  0.39113245  0.28030337     0.08800
H208        H  0.26972834  0.37658115  0.15478814     0.08790
H209        H  0.24800593  0.36160603  0.18974193     0.08790
H210        H  0.26936486  0.33256263  0.16184708     0.05560
C211        C  0.20405145  0.13733829  0.27002199    -0.20240
C212        C  0.23384839  0.12126286  0.27695189    -0.06810
C213        C  0.25348533  0.13302243  0.30509655     0.14060
C214        C  0.24553342  0.16355654  0.32270825    -0.20300
C215        C  0.21796380  0.18203246  0.31288778    -0.06810
C216        C  0.19532789  0.16696615  0.28836048     0.14050
C217        C  0.16209037  0.18204619  0.28063629    -0.23640
H218        H  0.18704864  0.12620513  0.25073083     0.15340
H219        H  0.26251127  0.17432668  0.34216212     0.15360
C220        C  0.28244890  0.11300705  0.31671239    -0.23590
H221        H  0.14195738  0.16285744  0.28279534     0.05580
H222        H  0.16160982  0.19007523  0.25494789     0.08800
H223        H  0.15658361  0.20401101  0.29811734     0.08800
H224        H  0.30096138  0.10984898  0.29689029     0.08790
H225        H  0.27351328  0.08769218  0.32287596     0.08790
H226        H  0.29488974  0.12560862  0.33928372     0.05560
C227        C  0.21519768  0.00332012  0.38669910    -0.20240
C228        C  0.24233510  0.48836780  0.37016670    -0.06810
C229        C  0.26627760  0.47198832  0.38955268     0.14060
C230        C  0.26230430  0.47122193  0.42405213    -0.20300
C231        C  0.23493582  0.48572105  0.44038219    -0.06810
C232        C  0.21077178  0.00164794  0.42098147     0.14050
C233        C  0.17875837  0.01507452  0.43469022    -0.23640
H234        H  0.19642537  0.01580722  0.37259440     0.15340
H235        H  0.28068764  0.45862970  0.43854172     0.15360
C236        C  0.29596793  0.45466354  0.37445770    -0.23590
H237        H  0.15729684  0.00287303  0.42021452     0.05580
H238        H  0.17800273  0.04276055  0.43271258     0.08800
H239        H  0.17553273  0.00975035  0.46077521     0.08800
H240        H  0.31222155  0.47332286  0.36322909     0.08790
H241        H  0.28746016  0.43452480  0.35537212     0.08790
H242        H  0.31136924  0.44255479  0.39324302     0.05560
C243        C  0.21602783  0.98719923  0.09227720    -0.20240
C244        C  0.24160820  0.00648721  0.10976251    -0.06810
C245        C  0.26499669  0.52342583  0.09086015     0.14060
C246        C  0.26145043  0.52143716  0.05589503    -0.20300
C247        C  0.23513899  0.00320924  0.03842672    -0.06810
C248        C  0.21211603  0.98567417  0.05739709     0.14050
C249        C  0.18204129  0.96636403  0.04255685    -0.23640
H250        H  0.19800750  0.97372354  0.10607312     0.15340
H251        H  0.27938979  0.53477767  0.04190652     0.15360
C252        C  0.29428812  0.54318849  0.10701420    -0.23590
H253        H  0.18444350  0.93913574  0.04635916     0.05580
H254        H  0.17846348  0.96934850  0.01592636     0.08800
H255        H  0.15925726  0.97585022  0.05480837     0.08800
H256        H  0.30952503  0.52657790  0.12196199     0.08790
H257        H  0.28539965  0.56488051  0.12309493     0.08290
H258        H  0.31071554  0.55350525  0.08841799     0.05560
C259        C  0.38993670  0.18506027  0.29867996    -0.20240
C260        C  0.39072196  0.19074380  0.26462030    -0.06810
C261        C  0.36454478  0.17760378  0.24324264     0.14060
C262        C  0.33569650  0.16564062  0.25776033    -0.20300
C263        C  0.33172296  0.17420344  0.29176867    -0.06810
C264        C  0.36041254  0.17433366  0.31216712     0.14050
C265        C  0.35810201  0.17121781  0.34884082    -0.23640
H266        H  0.41136881  0.19120425  0.31507593     0.15340
H267        H  0.31391873  0.15879755  0.24206843     0.15360
C268        C  0.36682565  0.17659628  0.20614798    -0.23590
H269        H  0.38268477  0.17589392  0.36183155     0.05580
H270        H  0.34951787  0.14530814  0.35322688     0.08800
H271        H  0.34024151  0.18963672  0.35977339     0.08800
H272        H  0.38882408  0.16190013  0.19812325     0.08790
H273        H  0.36931603  0.20260887  0.19824408     0.08790
H274        H  0.34427350  0.16449098  0.19349525     0.05560
C275        C  0.12917941  0.30108083  0.23785200    -0.20240
C276        C  0.11156638  0.28363821  0.26079694    -0.06810
C277        C  0.11951967  0.28941623  0.29506406     0.14060
C278        C  0.14449074  0.31278558  0.30545381    -0.20300
C279        C  0.16596488  0.32548574  0.28249760    -0.06810
C280        C  0.15676653  0.32184845  0.24830754     0.14050
C281        C  0.17617728  0.33901368  0.22281828    -0.23640
H282        H  0.12136184  0.29844582  0.21190461     0.15340
H283        H  0.15109918  0.31636112  0.33170488     0.15360
C284        C  0.10317095  0.26941647  0.32078054    -0.23590
H285        H  0.16410162  0.33501679  0.19775416     0.05580
H286        H  0.20159079  0.32885923  0.22113416     0.08800
H287        H  0.17774748  0.36660471  0.22968409     0.08800
H288        H  0.10534614  0.24199290  0.31377887     0.08790
H289        H  0.07656734  0.27566893  0.32303181     0.08790
H290        H  0.11512811  0.27475867  0.34576712     0.05560
C291        C  0.00462030  0.26453565  0.43227423    -0.20240
C292        C  0.48440366  0.23831994  0.44309915    -0.06810
C293        C  0.47082810  0.21388282  0.41865913     0.14060
C294        C  0.47765065  0.21634984  0.38499591    -0.20300
C295        C  0.49655680  0.24324635  0.37406424    -0.06810
C296        C  0.01025717  0.26771844  0.39824475     0.14050
C297        C  0.03131661  0.29687684  0.38855811    -0.23640
H298        H  0.01519368  0.28341171  0.45049148     0.15340
H299        H  0.46693150  0.19751553  0.36674255     0.15360
C300        C  0.44908364  0.18472951  0.42741392    -0.23590
H301        H  0.04059042  0.31314558  0.41057658     0.05580
H302        H  0.01648959  0.31283505  0.37259615     0.08800
H303        H  0.05324733  0.28719561  0.37509529     0.08800
H304        H  0.42432606  0.19403416  0.43473531     0.08790
H305        H  0.46090574  0.17152879  0.44770874     0.08790
H306        H  0.44471403  0.16583662  0.40595637     0.05560
C307        C  0.98366428  0.26482920  0.09563883    -0.20240
C308        C  0.99023017  0.23513174  0.11112572    -0.06810
C309        C  0.49616680  0.20524565  0.09103563     0.14060
C310        C  0.49686283  0.20615130  0.05629854    -0.20300
C311        C  0.99238713  0.23629426  0.04064768    -0.06810
C312        C  0.98533253  0.26601389  0.06091054     0.14050
C313        C  0.98088741  0.29978848  0.04722771    -0.23640
H314        H  0.97887561  0.28777988  0.11090580     0.15340
H315        H  0.50184907  0.18320857  0.04143446     0.15360
C316        C  0.50152070  0.17224195  0.10620472    -0.23590
H317        H  0.95536433  0.30880494  0.05216634     0.05580
H318        H  0.98471809  0.29891231  0.02034141     0.08800
H319        H  0.99930992  0.31829247  0.05938434     0.08800
H320        H  0.47971538  0.16610774  0.12111330     0.08790
H321        H  0.52432373  0.17400879  0.12241121     0.08790
H322        H  0.50461448  0.15109812  0.08699547     0.05560
C323        C  0.09941170  0.46724695  0.20482773    -0.20240
C324        C  0.11813497  0.97834910  0.23381665    -0.06810
C325        C  0.10022599  0.99138879  0.26177985     0.14060
C326        C  0.06580866  0.99635928  0.25879377    -0.20300
C327        C  0.04707554  0.98629203  0.22987038    -0.06810
C328        C  0.06418507  0.47088416  0.20261493     0.14050
C329        C  0.04568665  0.45945673  0.17078061    -0.23640
H330        H  0.11247165  0.45702155  0.18335115     0.15340
H331        H  0.05321409  0.00857999  0.27963211     0.15360
C332        C  0.11675707  0.00030513  0.29543181    -0.23590
H333        H  0.06279103  0.44896552  0.15167122     0.05580
H334        H  0.03258298  0.48085821  0.16066613     0.08800
H335        H  0.02723180  0.43940854  0.17534936     0.08800
H336        H  0.13219012  0.02372359  0.29523233     0.08790
H337        H  0.13225791  0.97908339  0.30268318     0.08790
H338        H  0.09816548  0.00506206  0.31500596     0.05560
C339        C  0.39672793  0.01684098  0.21251047    -0.20240
C340        C  0.37958441  0.51095321  0.24168648    -0.06810
C341        C  0.39817880  0.49663445  0.26750688     0.14060
C342        C  0.43166501  0.48792036  0.26292351    -0.20300
C343        C  0.44860007  0.49305211  0.23377415    -0.06810
C344        C  0.43054046  0.00779174  0.20808689     0.14050
C345        C  0.44532645  0.01248369  0.17493592    -0.23640
H346        H  0.38326941  0.02725045  0.19221924     0.15340
H347        H  0.44453882  0.47589570  0.28238455     0.15360
C348        C  0.38327558  0.48915408  0.30010997    -0.23590
H349        H  0.42962847  0.99877360  0.15504944     0.05580
H350        H  0.47084616  0.00264296  0.17287331     0.08800
H351        H  0.44612084  0.03975323  0.17069409     0.08800
H352        H  0.36326859  0.46949538  0.29591947     0.08790
H353        H  0.37338721  0.51260431  0.31257410     0.08790
H354        H  0.40194499  0.47933392  0.31749431     0.05560
C355        C  0.46934883  0.42012828  0.20547670    -0.20240
C356        C  0.48451135  0.44059675  0.23203480    -0.06810
C357        C  0.99413721  0.42459644  0.26095088     0.14060
C358        C  0.98909294  0.38956198  0.26191737    -0.20300
C359        C  0.47509189  0.36881660  0.23509133    -0.06810
C360        C  0.46494545  0.38467385  0.20636041     0.14050
C361        C  0.44936141  0.36465286  0.17663328    -0.23640
H362        H  0.46066717  0.43214264  0.18377805     0.15340
H363        H  0.99675344  0.37806481  0.28424619     0.15360
C364        C  0.00978426  0.44322928  0.29151271    -0.23590
H365        H  0.44305543  0.38098489  0.15639004     0.05580
H366        H  0.42596680  0.35210887  0.18374418     0.08800
H367        H  0.46694788  0.34536858  0.16681241     0.08800
H368        H  0.99471695  0.46461101  0.30068551     0.08790
H369        H  0.03521822  0.45156111  0.28639503     0.08790
H370        H  0.01234188  0.42677166  0.31236406     0.05560
C371        C  0.02180683  0.05301857  0.20039237    -0.20240
C372        C  0.01049116  0.03711074  0.22820032    -0.06810
C373        C  0.50425388  0.05789872  0.25729780     0.14060
C374        C  0.50891265  0.09298724  0.25761108    -0.20300
C375        C  0.01995253  0.10920252  0.22988383    -0.06810
C376        C  0.02621837  0.08856295  0.20066378     0.14050
C377        C  0.03724799  0.10359781  0.16964992    -0.23640
H378        H  0.02757143  0.03747522  0.17824871     0.15340
H379        H  0.50390796  0.10784931  0.28047626     0.15360
C380        C  0.49391944  0.04444819  0.28929835    -0.23590
H381        H  0.04090156  0.08388122  0.14915189     0.05580
H382        H  0.06128635  0.11757643  0.17461784     0.08800
H383        H  0.01804764  0.12099676  0.16119025     0.08800
H384        H  0.49254061  0.01680811  0.28788343     0.08790
H385        H  0.46906917  0.05421137  0.29601403     0.08790
H386        H  0.51232285  0.05279425  0.30939618     0.05560
C387        C  0.01176962  0.99898597  0.72789926     0.00630
C388        C  0.48343622  0.47866858  0.73056571     0.00630
Zn389      Zn  0.49284217  0.20639919  0.77118402     1.49720
Zn390      Zn  0.03206062  0.21939008  0.71062619     1.49360
Zn391      Zn  0.46013794  0.25612311  0.71464245     1.49110
Zn392      Zn  0.00925846  0.27635110  0.77298012     1.49480
O393        O  0.49838532  0.23990797  0.74008036    -1.84060
O394        O  0.50753748  0.16127399  0.75813524    -0.74690
O395        O  0.01922980  0.22786352  0.66248023    -0.74510
O396        O  0.42003695  0.22932423  0.73169559    -0.74030
O397        O  0.03285693  0.16583686  0.71126215    -0.74710
O398        O  0.44689025  0.19914908  0.76802289    -0.74310
O399        O  0.46672484  0.24513337  0.66475648    -0.74890
O400        O  0.99474039  0.32076858  0.76008831    -0.74280
O401        O  0.07585781  0.24446360  0.72701534    -0.75040
O402        O  0.45786586  0.30963914  0.71915923    -0.74430
O403        O  0.05572829  0.27913498  0.76773239    -0.74900
O404        O  0.00042992  0.27138853  0.82282330    -0.74810
O405        O  0.50239488  0.21610583  0.82004213    -0.74590
C406        C  0.02093040  0.14738202  0.73290807     0.77200
C407        C  0.99209418  0.23604250  0.64811327     0.77690
C408        C  0.42056588  0.20726895  0.75334796     0.76650
C409        C  0.47524308  0.33108641  0.73806314     0.77020
C410        C  0.07958042  0.26761933  0.75089504     0.78160
C411        C  0.50071696  0.24399973  0.83731143     0.77210
Zn412      Zn  0.28191409  0.48475768  0.76903707     1.49720
Zn413      Zn  0.27325011  0.03429775  0.71573455     1.49360
Zn414      Zn  0.22611860  0.46654135  0.70701216     1.49110
Zn415      Zn  0.21531434  0.01651549  0.76967728     1.49480
O416        O  0.24823552  0.50057492  0.73918981    -1.84060
O417        O  0.32687888  0.50809963  0.76876445    -0.74690
O418        O  0.26028642  0.02918141  0.66519993    -0.74510
O419        O  0.25718846  0.42552108  0.70503683    -0.74030
O420        O  0.32502801  0.02573452  0.71870694    -0.74710
O421        O  0.29277915  0.44206238  0.74670744    -0.74310
O422        O  0.22943758  0.48203308  0.66046981    -0.74890
O423        O  0.16969055  0.00310665  0.75373133    -0.74280
O424        O  0.26048581  0.08022691  0.74006681    -0.75040
O425        O  0.17384129  0.46077218  0.71534096    -0.74430
O426        O  0.21916363  0.06499808  0.77247195    -0.74900
O427        O  0.22097995  0.00440853  0.81758707    -0.74810
O428        O  0.27000347  0.48086532  0.81747818    -0.74590
C429        C  0.34209568  0.51594062  0.74325068     0.77200
C430        C  0.24388796  0.00623442  0.64714257     0.77690
C431        C  0.28439578  0.42216430  0.72170399     0.76650
C432        C  0.15584977  0.98026963  0.73411945     0.77020
C433        C  0.23810346  0.08715476  0.76157931     0.78160
C434        C  0.24459306  0.49099764  0.83320237     0.77210
C435        C  0.23166183  0.00691685  0.50125489     0.00630
C436        C  0.23174670  0.48051489  0.97696097     0.00630
C437        C  0.00023031  0.23629608  0.50424311     0.00630
C438        C  0.47612927  0.23781827  0.97954461     0.00630
Zn439      Zn  0.26710314  0.21357167  0.95731394     1.49720
Zn440      Zn  0.21040057  0.21341241  0.51060164     1.49360
Zn441      Zn  0.26962353  0.27266994  0.51301571     1.49110
Zn442      Zn  0.20623448  0.27152426  0.96692825     1.49480
O443        O  0.23841101  0.24232103  0.48691315    -1.84060
O444        O  0.25380217  0.16341001  0.95619180    -0.74690
O445        O  0.22034206  0.22457305  0.55744185    -0.74510
O446        O  0.31800909  0.26165015  0.50733361    -0.74030
O447        O  0.22137132  0.16586955  0.49981284    -0.74710
O448        O  0.31635993  0.21602603  0.97217724    -0.74310
O449        O  0.26012861  0.26503314  0.55831600    -0.74890
O450        O  0.21473751  0.31968793  0.98230220    -0.74280
O451        O  0.16036486  0.21794291  0.50394372    -0.75040
O452        O  0.26358714  0.32288320  0.50837909    -0.74430
O453        O  0.15790796  0.26204908  0.97399059    -0.74900
O454        O  0.21598169  0.26165882  0.92012833    -0.74810
O455        O  0.26285435  0.23528764  0.91384063    -0.74590
C456        C  0.23713676  0.14883563  0.47767154     0.77200
C457        C  0.24051742  0.24577774  0.57249052     0.77690
C458        C  0.33268831  0.23773412  0.99135821     0.76650
C459        C  0.23854180  0.33730776  0.99632755     0.77020
C460        C  0.14354561  0.23961287  0.48955139     0.78160
C461        C  0.24731928  0.26296139  0.91755181     0.77210
Zn462      Zn  0.26664518  0.31802145  0.76765830     1.49720
Zn463      Zn  0.24852134  0.28291598  0.82802998     1.49360
Zn464      Zn  0.25426936  0.24226629  0.77353918     1.49110
Zn465      Zn  0.31949181  0.28155642  0.80527676     1.49480
O466        O  0.27428109  0.28152688  0.79233088    -1.84060
O467        O  0.22361283  0.34063734  0.77825208    -0.74690
O468        O  0.23915813  0.23448581  0.84032308    -0.74510
O469        O  0.24854295  0.24436739  0.72712989    -0.74030
O470        O  0.20839931  0.30290649  0.81295243    -0.74710
O471        O  0.26016412  0.29877204  0.72183329    -0.74310
O472        O  0.21112017  0.23532569  0.79382993    -0.74890
O473        O  0.32815689  0.23228485  0.80823517    -0.74280
O474        O  0.27259669  0.31352470  0.85763536    -0.75040
O475        O  0.28448457  0.20561313  0.78137547    -0.74430
O476        O  0.32657952  0.31234536  0.84840168    -0.74900
O477        O  0.34274028  0.30009241  0.76661978    -0.74810
O478        O  0.30923237  0.34392413  0.77020915    -0.74590
C479        C  0.20119158  0.32480666  0.79281034     0.77200
C480        C  0.22026666  0.21915553  0.81797258     0.77690
C481        C  0.25279877  0.26906403  0.70983352     0.76650
C482        C  0.31295053  0.20532451  0.79577532     0.77020
C483        C  0.30216609  0.32328386  0.86547530     0.78160
C484        C  0.33348424  0.32820361  0.75680774     0.77210
C485        C  0.30109374  0.29426176  0.93115016    -0.20240
C486        C  0.26615769  0.29543486  0.92513046    -0.06810
C487        C  0.25257058  0.32751971  0.91859576     0.14060
C488        C  0.27565649  0.35316588  0.91101467    -0.20300
C489        C  0.30643493  0.34154493  0.89900385    -0.06810
C490        C  0.32172939  0.32008207  0.92021308     0.14050
C491        C  0.35890822  0.31752848  0.92110885    -0.23640
H492        H  0.31234551  0.27175275  0.93922353     0.15340
H493        H  0.26622862  0.37622752  0.90197644     0.15360
C494        C  0.21647643  0.33165967  0.90812694    -0.23590
H495        H  0.36874001  0.32902684  0.94531246     0.05580
H496        H  0.37022628  0.33176117  0.90151161     0.08800
H497        H  0.36641316  0.29078200  0.91730595     0.08800
H498        H  0.19895123  0.32263346  0.92617257     0.08790
H499        H  0.21122411  0.31705052  0.88398526     0.08790
H500        H  0.21088437  0.35852026  0.90502201     0.05560
C501        C  0.26923188  0.23676140  0.62378096    -0.20240
C502        C  0.24128848  0.24885998  0.60769453    -0.06810
C503        C  0.21693696  0.26747185  0.62489224     0.14060
C504        C  0.22148385  0.27420328  0.65884581    -0.20300
C505        C  0.24966252  0.26249741  0.67486762    -0.06810
C506        C  0.27362983  0.24320086  0.65774807     0.14050
C507        C  0.30386986  0.23002177  0.67511675    -0.23640
H508        H  0.28777593  0.22287023  0.60961892     0.15340
H509        H  0.20315850  0.28843328  0.67287779     0.15360
C510        C  0.18696475  0.28089128  0.60732844    -0.23590
H511        H  0.32030202  0.21610634  0.65739028     0.05580
H512        H  0.29603180  0.21244776  0.69360693     0.08800
H513        H  0.31862537  0.25127951  0.68796528     0.08800
H514        H  0.17203258  0.25960142  0.59471820     0.08790
H515        H  0.19517249  0.29805702  0.58860271     0.08790
H516        H  0.17065409  0.29523594  0.62486761     0.05560
C517        C  0.38631447  0.26700855  0.98515207    -0.20240
C518        C  0.36964250  0.23755068  0.99272736    -0.06810
C519        C  0.38849625  0.20933191  0.50028712     0.14060
C520        C  0.42359280  0.21124048  0.49897170    -0.20300
C521        C  0.43997863  0.23975519  0.98780444    -0.06810
C522        C  0.42084264  0.26824117  0.98130686     0.14050
C523        C  0.43549817  0.30042932  0.96996640    -0.23640
H524        H  0.37189645  0.28903746  0.98106345     0.15340
H525        H  0.43811195  0.18949017  0.50427685     0.15360
C526        C  0.37173530  0.17744697  0.50979373    -0.23590
H527        H  0.42571917  0.30426516  0.94466771     0.05580
H528        H  0.42847282  0.32210886  0.98716816     0.08800
H529        H  0.46286220  0.30063336  0.96919377     0.08800
H530        H  0.35535504  0.16653650  0.48899013     0.08790
H531        H  0.35655695  0.18310682  0.53199619     0.08790
H532        H  0.39017975  0.15815670  0.51570261     0.05560
C533        C  0.08872017  0.20923800  0.48300649    -0.20240
C534        C  0.10677714  0.23934713  0.49155795    -0.06810
C535        C  0.08952146  0.26869492  0.00249221     0.14060
C536        C  0.05484230  0.26681261  0.00558876    -0.20300
C537        C  0.03658002  0.23672914  0.49698668    -0.06810
C538        C  0.05375194  0.20770737  0.48479660     0.14050
C539        C  0.03569900  0.17523552  0.47307371    -0.23640
H540        H  0.10205279  0.18696733  0.47425222     0.15340
H541        H  0.04191284  0.28904505  0.01490716     0.15360
C542        C  0.10765223  0.30171693  0.01222093    -0.23590
H543        H  0.05330814  0.15499982  0.46561097     0.05580
H544        H  0.01980110  0.17926428  0.45107799     0.08800
H545        H  0.02015784  0.16597761  0.49269222     0.08800
H546        H  0.12000160  0.31103464  0.99038425     0.08790
H547        H  0.12663136  0.29820682  0.03206800     0.08790
H548        H  0.09041349  0.32152423  0.02168910     0.05560
C549        C  0.25895428  0.43264229  0.50381287    -0.20240
C550        C  0.23212419  0.44445756  0.98518919    -0.06810
C551        C  0.20705498  0.42115470  0.97229584     0.14060
C552        C  0.20913047  0.38734657  0.97894615    -0.20300
C553        C  0.23674564  0.37483780  0.99586562    -0.06810
C554        C  0.26188682  0.39808241  0.50896304     0.14050
C555        C  0.29205258  0.38700923  0.52786007    -0.23640
H556        H  0.27841645  0.45040992  0.51317690     0.15340
H557        H  0.18932800  0.37021444  0.96920955     0.15360
C558        C  0.17803688  0.43105765  0.95080979    -0.23590
H559        H  0.30847827  0.40876779  0.53695397     0.05580
H560        H  0.30699154  0.36979445  0.51151181     0.08800
H561        H  0.28412992  0.37402673  0.54976381     0.08800
H562        H  0.18702005  0.43852411  0.92676357     0.08790
H563        H  0.16409463  0.45182481  0.96339894     0.08790
H564        H  0.15999538  0.40976221  0.94494073     0.05560
C565        C  0.20752142  0.09820423  0.49370180    -0.20240
C566        C  0.23525909  0.11152060  0.47840617    -0.06810
C567        C  0.26120302  0.08961976  0.46853465     0.14060
C568        C  0.25898690  0.05540135  0.47535949    -0.20300
C569        C  0.23155786  0.04258068  0.49174988    -0.06810
C570        C  0.20539669  0.06450657  0.50078059     0.14050
C571        C  0.17441455  0.05370728  0.51763880    -0.23640
H572        H  0.18721146  0.11453976  0.50099593     0.15340
H573        H  0.27926122  0.03875637  0.46887168     0.15360
C574        C  0.29184255  0.10225277  0.45232263    -0.23590
H575        H  0.15205962  0.06011681  0.50280874     0.05580
H576        H  0.17347000  0.06711239  0.54270366     0.08800
H577        H  0.17290508  0.02648940  0.02013471     0.08800
H578        H  0.30459034  0.12236275  0.46889567     0.08790
H579        H  0.28473756  0.11241551  0.92835709     0.08790
H580        H  0.30986438  0.08178975  0.44709345     0.05560
C581        C  0.34158308  0.40132444  0.72696940    -0.20240
C582        C  0.30905331  0.39595555  0.71290160    -0.06810
C583        C  0.30142624  0.36443247  0.69557908     0.14060
C584        C  0.32308226  0.33762755  0.70057182    -0.20300
C585        C  0.34675807  0.34157459  0.72700015    -0.06810
C586        C  0.36108079  0.37382367  0.73357453     0.14050
C587        C  0.39166795  0.37941004  0.75560754    -0.23640
H588        H  0.35004700  0.42629228  0.73680284     0.15340
H589        H  0.31586154  0.31238827  0.69068551     0.15360
C590        C  0.27026535  0.35839656  0.67432229    -0.23590
H591        H  0.40924731  0.39676762  0.74437745     0.05580
H592        H  0.40424073  0.35521845  0.75906477     0.08800
H593        H  0.38474444  0.39104778  0.78024448     0.08800
H594        H  0.26965124  0.37652453  0.65478728     0.08790
H595        H  0.24794536  0.36156033  0.68975575     0.08790
H596        H  0.26928136  0.33250720  0.66185069     0.05560
C597        C  0.20405087  0.13729466  0.77006384    -0.20240
C598        C  0.23385685  0.12122375  0.77696797    -0.06810
C599        C  0.25350797  0.13297693  0.80510517     0.14060
C600        C  0.24556054  0.16350448  0.82273164    -0.20300
C601        C  0.21798112  0.18197862  0.81293356    -0.06810
C602        C  0.19533181  0.16691407  0.78841843     0.14050
C603        C  0.16208524  0.18198950  0.78072304    -0.23640
H604        H  0.18703767  0.12616389  0.75078072     0.15340
H605        H  0.26254818  0.17427212  0.84217808     0.15360
C606        C  0.28248035  0.11296037  0.81669879    -0.23590
H607        H  0.14195903  0.16279585  0.78289229     0.05580
H608        H  0.16158284  0.19002548  0.75503716     0.08800
H609        H  0.15658751  0.20394918  0.79821407     0.08800
H610        H  0.30098175  0.10980971  0.79686566     0.08790
H611        H  0.27355149  0.08764225  0.82285965     0.08790
H612        H  0.29493216  0.12555648  0.83926678     0.05560
C613        C  0.21520492  0.00333153  0.88669555    -0.20240
C614        C  0.24234122  0.48836790  0.87016858    -0.06810
C615        C  0.26628446  0.47199903  0.88956260     0.14060
C616        C  0.26231190  0.47125012  0.92406373    -0.20300
C617        C  0.23494280  0.48575584  0.94038774    -0.06810
C618        C  0.21077928  0.00167560  0.92097976     0.14050
C619        C  0.17876579  0.01510849  0.93468269    -0.23640
H620        H  0.19643255  0.01581231  0.87258508     0.15340
H621        H  0.28069501  0.45866416  0.93855929     0.15360
C622        C  0.29597424  0.45466701  0.87447459    -0.23590
H623        H  0.15730430  0.00290362  0.92020958     0.05580
H624        H  0.17801177  0.04279319  0.93269576     0.08800
H625        H  0.17553808  0.00979345  0.96076979     0.08800
H626        H  0.31222649  0.47331960  0.86323476     0.08790
H627        H  0.28746578  0.43451866  0.85539920     0.08790
H628        H  0.31137703  0.44256914  0.89326632     0.05560
C629        C  0.21603083  0.98716392  0.59227505    -0.20240
C630        C  0.24161175  0.00645265  0.60975904    -0.06810
C631        C  0.26500373  0.52338459  0.59085500     0.14060
C632        C  0.26145894  0.52139094  0.55588968    -0.20300
C633        C  0.23514576  0.00316370  0.53842284    -0.06810
C634        C  0.21212078  0.98563329  0.55739468     0.14050
C635        C  0.18204570  0.96632266  0.54255560    -0.23640
H636        H  0.19800857  0.97369201  0.60607208     0.15340
H637        H  0.27939989  0.53472807  0.54190004     0.15360
C638        C  0.29429606  0.54314662  0.60700796    -0.23590
H639        H  0.18444665  0.93909506  0.54636164     0.05580
H640        H  0.17846868  0.96930341  0.51592427     0.08800
H641        H  0.15926161  0.97581138  0.55480522     0.08800
H642        H  0.30953079  0.52653680  0.62195866     0.08790
H643        H  0.28540863  0.56484129  0.62308579     0.08290
H644        H  0.31072524  0.55345935  0.58841095     0.05560
C645        C  0.38994387  0.18505197  0.79868903    -0.20240
C646        C  0.39072297  0.19073809  0.76462950    -0.06810
C647        C  0.36454901  0.17758765  0.74325323     0.14060
C648        C  0.33570792  0.16560958  0.75777262    -0.20300
C649        C  0.33173419  0.17416941  0.79178137    -0.06810
C650        C  0.36042617  0.17430945  0.81217743     0.14050
C651        C  0.35812091  0.17118984  0.84885101    -0.23640
H652        H  0.41137538  0.19120386  0.81508362     0.15340
H653        H  0.31393139  0.15875677  0.74208230     0.15360
C654        C  0.36682589  0.17658399  0.70615846    -0.23590
H655        H  0.38270314  0.17587602  0.86184020     0.05580
H656        H  0.34954852  0.14527617  0.85323626     0.08800
H657        H  0.34025332  0.18960000  0.85978578     0.08800
H658        H  0.38883039  0.16189897  0.69813091     0.08790
H659        H  0.36930304  0.20259840  0.69825617     0.08790
H660        H  0.34427777  0.16446890  0.69350700     0.05560
C661        C  0.12917426  0.30105550  0.73788382    -0.20240
C662        C  0.11156097  0.28359529  0.76081488    -0.06810
C663        C  0.11951439  0.28934484  0.79508374     0.14060
C664        C  0.14448868  0.31270408  0.80548998    -0.20300
C665        C  0.16596108  0.32542576  0.78254364    -0.06810
C666        C  0.15676262  0.32181437  0.74835266     0.14050
C667        C  0.17617410  0.33899587  0.72287447    -0.23640
H668        H  0.12135527  0.29844120  0.71193643     0.15340
H669        H  0.15109690  0.31625888  0.83174212     0.15360
C670        C  0.10315960  0.26932666  0.82078292    -0.23590
H671        H  0.16409426  0.33502150  0.69781067     0.05580
H672        H  0.20158368  0.32883413  0.72117703     0.08800
H673        H  0.17775274  0.36658297  0.72976042     0.08800
H674        H  0.10533577  0.24190657  0.81376408     0.08790
H675        H  0.07655492  0.27557577  0.82303262     0.08790
H676        H  0.11511167  0.27465278  0.84577381     0.05560
C677        C  0.00460184  0.26459381  0.93226938    -0.20240
C678        C  0.48440390  0.23831576  0.94309737    -0.06810
C679        C  0.47082413  0.21388135  0.91865694     0.14060
C680        C  0.47764437  0.21634956  0.88499332    -0.20300
C681        C  0.49655188  0.24324510  0.87406189    -0.06810
C682        C  0.01023419  0.26776949  0.89823754     0.14050
C683        C  0.03127910  0.29693408  0.88854053    -0.23640
H684        H  0.01517189  0.28347666  0.95048182     0.15340
H685        H  0.46692251  0.19751724  0.86673953     0.15360
C686        C  0.44907820  0.18472927  0.92741201    -0.23590
H687        H  0.04055000  0.31321136  0.91055439     0.05580
H688        H  0.01644105  0.31288164  0.87257729     0.08800
H689        H  0.05321143  0.28726083  0.87507470     0.08800
H690        H  0.42432168  0.19403548  0.93473505     0.08790
H691        H  0.46090046  0.17152717  0.94770584     0.08790
H692        H  0.44470633  0.16583728  0.90595409     0.05560
C693        C  0.98364017  0.26478278  0.59562730    -0.20240
C694        C  0.99021893  0.23509412  0.61112397    -0.06810
C695        C  0.49614407  0.20525400  0.59103493     0.14060
C696        C  0.49684502  0.20616048  0.55629836    -0.20300
C697        C  0.99238055  0.23623696  0.54064461    -0.06810
C698        C  0.98531265  0.26595858  0.56089856     0.14050
C699        C  0.98086229  0.29972800  0.54720653    -0.23640
H700        H  0.97884105  0.28773520  0.61088734     0.15340
H701        H  0.50182173  0.18321560  0.54143379     0.15360
C702        C  0.50148191  0.17224733  0.60620337    -0.23590
H703        H  0.95533390  0.30873637  0.55213212     0.05580
H704        H  0.98470605  0.29884814  0.52032232     0.08800
H705        H  0.99927438  0.31824047  0.55936718     0.08800
H706        H  0.47967181  0.16612167  0.62110899     0.08790
H707        H  0.52428293  0.17400458  0.62241276     0.08790
H708        H  0.50457000  0.15110253  0.58699388     0.05560
C709        C  0.09940959  0.46723845  0.70482383    -0.20240
C710        C  0.11813282  0.97833578  0.73381432    -0.06810
C711        C  0.10022605  0.99137586  0.76177870     0.14060
C712        C  0.06580991  0.99635149  0.75879307    -0.20300
C713        C  0.04707642  0.98628906  0.72986886    -0.06810
C714        C  0.06418421  0.47088138  0.70261125     0.14050
C715        C  0.04568520  0.45946107  0.67077529    -0.23640
H716        H  0.11246845  0.45701349  0.68334635     0.15340
H717        H  0.05321648  0.00857074  0.77963282     0.15360
C718        C  0.11675804  0.00028682  0.79543123    -0.23590
H719        H  0.06278870  0.44897057  0.65166473     0.05580
H720        H  0.03258471  0.48086600  0.66066390     0.08800
H721        H  0.02722789  0.43941409  0.67534036     0.08800
H722        H  0.13219481  0.02370305  0.79523374     0.08790
H723        H  0.13225531  0.97906176  0.80268075     0.08790
H724        H  0.09816703  0.00504521  0.81500568     0.05560
C725        C  0.39672443  0.01681104  0.71249878    -0.20240
C726        C  0.37958889  0.51093206  0.74168159    -0.06810
C727        C  0.39819411  0.49664231  0.76751218     0.14060
C728        C  0.43168128  0.48793425  0.76292831    -0.20300
C729        C  0.44860731  0.49304926  0.73377036    -0.06810
C730        C  0.43053902  0.00777077  0.70807604     0.14050
C731        C  0.44532045  0.01245311  0.67492104    -0.23640
H732        H  0.38325888  0.02720336  0.69220214     0.15340
H733        H  0.44456273  0.47592705  0.78239608     0.15360
C734        C  0.38330324  0.48919048  0.80012898    -0.23590
H735        H  0.42962680  0.99872757  0.65504072     0.05580
H736        H  0.47084487  0.00262370  0.67286228     0.08800
H737        H  0.44610265  0.03971979  0.67066646     0.08800
H738        H  0.36331270  0.46951156  0.79596435     0.08790
H739        H  0.37339668  0.51264521  0.81256677     0.08790
H740        H  0.40198495  0.47940858  0.81752486     0.05560
C741        C  0.46935718  0.42012725  0.70547072    -0.20240
C742        C  0.48451854  0.44059543  0.73202965    -0.06810
C743        C  0.99414032  0.42458717  0.76093974     0.14060
C744        C  0.98909177  0.38955333  0.76190271    -0.20300
C745        C  0.47509475  0.36881632  0.73508687    -0.06810
C746        C  0.46495335  0.38467300  0.70635412     0.14050
C747        C  0.44937434  0.36465145  0.67662471    -0.23640
H748        H  0.46067739  0.43214156  0.68377137     0.15340
H749        H  0.99674959  0.37805349  0.78423088     0.15360
C750        C  0.00979376  0.44321388  0.79150170    -0.23590
H751        H  0.44307327  0.38098292  0.65637964     0.05580
H752        H  0.42597763  0.35210833  0.68373118     0.08800
H753        H  0.46696206  0.34536626  0.66680824     0.08800
H754        H  0.99473312  0.46459907  0.80067773     0.08790
H755        H  0.03522968  0.45153866  0.78638249     0.08790
H756        H  0.01234839  0.42675400  0.81235157     0.05560
C757        C  0.02180019  0.05301869  0.70039878    -0.20240
C758        C  0.01049043  0.03710778  0.72820674    -0.06810
C759        C  0.50425514  0.05789753  0.75729129     0.14060
C760        C  0.50890806  0.09298640  0.75760339    -0.20300
C761        C  0.01994402  0.10920014  0.72989497    -0.06810
C762        C  0.02620860  0.08856321  0.70067262     0.14050
C763        C  0.03723410  0.10360060  0.66965853    -0.23640
H764        H  0.02756306  0.03747763  0.67825317     0.15340
H765        H  0.50390523  0.10784784  0.78046944     0.15360
C766        C  0.49392976  0.04444632  0.78929435    -0.23590
H767        H  0.04088790  0.08388544  0.64915925     0.05580
H768        H  0.06127157  0.11758125  0.67462498     0.08800
H769        H  0.01803108  0.12099772  0.66120107     0.08800
H770        H  0.49255735  0.01680624  0.78788044     0.08790
H771        H  0.46907865  0.05420442  0.79601405     0.08790
H772        H  0.51233517  0.05279684  0.80938889     0.05560
C773        C  0.01176838  0.49898928  0.22789739     0.00630
C774        C  0.48342983  0.97867061  0.23057178     0.00630
Zn775      Zn  0.49284682  0.70639911  0.27118368     1.49720
Zn776      Zn  0.03207376  0.71939949  0.21062343     1.49360
Zn777      Zn  0.46015004  0.75612170  0.21464022     1.49110
Zn778      Zn  0.00926607  0.77635023  0.27298943     1.49480
O779        O  0.49839755  0.73990752  0.24008049    -1.84060
O780        O  0.50753859  0.66127406  0.25813346    -0.74690
O781        O  0.01923785  0.72787989  0.16247849    -0.74510
O782        O  0.42004684  0.72932673  0.23169322    -0.74030
O783        O  0.03287740  0.66584181  0.21125534    -0.74710
O784        O  0.44689366  0.69915188  0.26802490    -0.74310
O785        O  0.46673768  0.74512864  0.16475478    -0.74890
O786        O  0.99473668  0.82077321  0.26011179    -0.74280
O787        O  0.07586930  0.74448652  0.22700724    -0.75040
O788        O  0.45787421  0.80963752  0.21915601    -0.74430
O789        O  0.05573428  0.77914879  0.26772730    -0.74900
O790        O  0.00045080  0.77136752  0.32283392    -0.74810
O791        O  0.50240104  0.71610466  0.32004146    -0.74590
C792        C  0.02093845  0.64738503  0.23289401     0.77200
C793        C  0.99210363  0.73606692  0.14811395     0.77690
C794        C  0.42057123  0.70727394  0.25334793     0.76650
C795        C  0.47524525  0.83108611  0.23806425     0.77020
C796        C  0.07958823  0.76764478  0.25088545     0.78160
C797        C  0.50072715  0.74399898  0.33731082     0.77210
Zn798      Zn  0.28191945  0.98481138  0.26904232     1.49720
Zn799      Zn  0.27325002  0.53433049  0.21573758     1.49360
Zn800      Zn  0.22612634  0.96656750  0.20701602     1.49110
Zn801      Zn  0.21531311  0.51655057  0.26968359     1.49480
O802        O  0.24823258  0.00060959  0.23919257    -1.84060
O803        O  0.32687428  0.00818036  0.26878364    -0.74690
O804        O  0.26028274  0.52921460  0.16520527    -0.74510
O805        O  0.25721434  0.92555661  0.20504640    -0.74030
O806        O  0.32502747  0.52575443  0.21870470    -0.74710
O807        O  0.29280570  0.94212868  0.24670628    -0.74310
O808        O  0.22943945  0.98205907  0.16047072    -0.74890
O809        O  0.16969011  0.50313479  0.25373266    -0.74280
O810        O  0.26048368  0.58026118  0.24006606    -0.75040
O811        O  0.17384731  0.96079049  0.21534705    -0.74430
O812        O  0.21916255  0.56503639  0.27247560    -0.74900
O813        O  0.22097776  0.50443335  0.31759315    -0.74810
O814        O  0.27000211  0.98089324  0.31747642    -0.74590
C815        C  0.34209263  0.01598099  0.24325655     0.77200
C816        C  0.24388743  0.50626593  0.14714748     0.77690
C817        C  0.28442809  0.92221904  0.22171011     0.76650
C818        C  0.15585365  0.48029171  0.23412395     0.77020
C819        C  0.23810077  0.58719198  0.26157753     0.78160
C820        C  0.24458885  0.99101524  0.33320165     0.77210
C821        C  0.23165832  0.50696143  0.00125982     0.00630
C822        C  0.23174451  0.98047248  0.47695343     0.00630
C823        C  0.00023309  0.73635969  0.00424509     0.00630
C824        C  0.47612761  0.73782137  0.47954214     0.00630
Zn825      Zn  0.26710491  0.71353190  0.45732067     1.49720
Zn826      Zn  0.21039930  0.71345804  0.01059683     1.49360
Zn827      Zn  0.26963180  0.77270883  0.01300357     1.49110
Zn828      Zn  0.20622783  0.77147503  0.46693598     1.49480
O829        O  0.23841159  0.74236326  0.98690754    -1.84060
O830        O  0.25381425  0.66336897  0.45620499    -0.74690
O831        O  0.22035432  0.72461046  0.05743556    -0.74510
O832        O  0.31801521  0.76168236  0.00731966    -0.74030
O833        O  0.22135965  0.66591261  0.99980168    -0.74710
O834        O  0.31636244  0.71600106  0.47217895    -0.74310
O835        O  0.26014504  0.76506601  0.05830142    -0.74890
O836        O  0.21472934  0.81964327  0.48230323    -0.74280
O837        O  0.16036416  0.71800363  0.00394678    -0.75040
O838        O  0.26359778  0.82292479  0.00837482    -0.74430
O839        O  0.15790329  0.76199530  0.47400426    -0.74900
O840        O  0.21596774  0.76159214  0.42013528    -0.74810
O841        O  0.26284588  0.73523355  0.41384002    -0.74590
C842        C  0.23712224  0.64887779  0.97765871     0.77200
C843        C  0.24053718  0.74581079  0.07247966     0.77690
C844        C  0.33268692  0.73770859  0.49136412     0.76650
C845        C  0.23853261  0.83726465  0.49632911     0.77020
C846        C  0.14354726  0.73967235  0.98954984     0.78160
C847        C  0.24730392  0.76290289  0.41754924     0.77210
Zn848      Zn  0.26666542  0.81808026  0.26764576     1.49720
Zn849      Zn  0.24850603  0.78297418  0.32800454     1.49360
Zn850      Zn  0.25428519  0.74232434  0.27351897     1.49110
Zn851      Zn  0.31949262  0.78160648  0.30529490     1.49480
O852        O  0.27428880  0.78158452  0.29232277    -1.84060
O853        O  0.22361871  0.84068847  0.27820477    -0.74690
O854        O  0.23912867  0.73454312  0.34028897    -0.74510
O855        O  0.24859062  0.74442722  0.22710862    -0.74030
O856        O  0.20839310  0.80296474  0.31290724    -0.74710
O857        O  0.26021540  0.79883214  0.22181754    -0.74310
O858        O  0.21112052  0.73538279  0.29377848    -0.74890
O859        O  0.32815641  0.73233096  0.30823931    -0.74280
O860        O  0.27256148  0.81358055  0.35763297    -0.75040
O861        O  0.28448687  0.70566584  0.28137009    -0.74430
O862        O  0.32655248  0.81236854  0.34843950    -0.74900
O863        O  0.34276615  0.80016241  0.26666030    -0.74810
O864        O  0.30925013  0.84398876  0.27022826    -0.74590
C865        C  0.20119227  0.82486285  0.29276107     0.77200
C866        C  0.22025005  0.71921287  0.31792713     0.77690
C867        C  0.25285574  0.76912397  0.20981474     0.76650
C868        C  0.31294920  0.70537267  0.29577583     0.77020
C869        C  0.30213260  0.82331367  0.36550064     0.78160
C870        C  0.33351334  0.82827289  0.25684317     0.77210
C871        C  0.30107126  0.79422012  0.43114476    -0.20240
C872        C  0.26613409  0.79538050  0.42512576    -0.06810
C873        C  0.25253104  0.82746292  0.41860936     0.14060
C874        C  0.27560528  0.85313428  0.41106507    -0.20300
C875        C  0.30639046  0.84154159  0.39904642    -0.06810
C876        C  0.32169516  0.82006470  0.42023532     0.14050
C877        C  0.35887576  0.81752679  0.42112735    -0.23640
H878        H  0.31233365  0.77170994  0.43920366     0.15340
H879        H  0.26616701  0.87620202  0.40204961     0.15360
C880        C  0.21643594  0.83158867  0.40813391    -0.23590
H881        H  0.36870600  0.82902563  0.44533149     0.05580
H882        H  0.37018569  0.83176718  0.40153125     0.08800
H883        H  0.36639228  0.79078424  0.41732039     0.08800
H884        H  0.19891073  0.82256286  0.42617993     0.08790
H885        H  0.21119071  0.81697077  0.38399541     0.08790
H886        H  0.21083533  0.85844522  0.40501809     0.05560
C887        C  0.26927247  0.73680819  0.12376256    -0.20240
C888        C  0.24131828  0.74889386  0.10768291    -0.06810
C889        C  0.21697025  0.76750644  0.12488436     0.14060
C890        C  0.22153116  0.77425154  0.15883413    -0.20300
C891        C  0.24971999  0.76255928  0.17484928    -0.06810
C892        C  0.27368376  0.74326089  0.15772705     0.14050
C893        C  0.30393114  0.73009077  0.17509037    -0.23640
H894        H  0.28781403  0.72291702  0.10959707     0.15340
H895        H  0.20320618  0.78847828  0.17286888     0.15360
C896        C  0.18698652  0.78091265  0.10732818    -0.23590
H897        H  0.32035777  0.71616967  0.15736249     0.05580
H898        H  0.29610149  0.71252431  0.19359073     0.08800
H899        H  0.31868927  0.75135349  0.18792631     0.08800
H900        H  0.17205381  0.75961564  0.09473176     0.08790
H901        H  0.19518088  0.79807264  0.08859191     0.08790
H902        H  0.17068059  0.79526003  0.12487001     0.05560
C903        C  0.38630691  0.76699432  0.48515483    -0.20240
C904        C  0.36964126  0.73753305  0.49273077    -0.06810
C905        C  0.38849122  0.70934425  0.00028227     0.14060
C906        C  0.42358829  0.71124634  0.99896807    -0.20300
C907        C  0.43997642  0.73975063  0.48780151    -0.06810
C908        C  0.42083467  0.76823349  0.48130692     0.14050
C909        C  0.43548366  0.80042495  0.46996750    -0.23640
H910        H  0.37188426  0.78902053  0.48106778     0.15340
H911        H  0.43810330  0.68949369  0.00427474     0.15360
C912        C  0.37172397  0.67746303  0.00978986    -0.23590
H913        H  0.42569902  0.80426270  0.44467120     0.05580
H914        H  0.42845854  0.82210165  0.48717293     0.08800
H915        H  0.46284756  0.80063222  0.46918988     0.08800
H916        H  0.35534302  0.66655439  0.98898602     0.08790
H917        H  0.35654537  0.68312697  0.03199141     0.08790
H918        H  0.39016453  0.65816975  0.01570057     0.05560
C919        C  0.08872138  0.70930108  0.98300680    -0.20240
C920        C  0.10677888  0.73941006  0.99155545    -0.06810
C921        C  0.08951819  0.76862824  0.50250555     0.14060
C922        C  0.05483912  0.76674465  0.50560016    -0.20300
C923        C  0.03658165  0.73679451  0.99698356    -0.06810
C924        C  0.05375335  0.70777167  0.98479573     0.14050
C925        C  0.03570084  0.67529992  0.97307182    -0.23640
H926        H  0.10205367  0.68702930  0.97425505     0.15340
H927        H  0.04190874  0.78897539  0.51492194     0.15360
C928        C  0.10764777  0.80164926  0.51224188    -0.23590
H929        H  0.05331026  0.65506323  0.96561290     0.05580
H930        H  0.01980743  0.67932802  0.95107296     0.08800
H931        H  0.02015595  0.66604307  0.99268767     0.08800
H932        H  0.11999669  0.81097325  0.49040784     0.08790
H933        H  0.12662695  0.79813509  0.53208782     0.08790
H934        H  0.09040832  0.82145385  0.52171458     0.05560
C935        C  0.25895683  0.93268614  0.00382043    -0.20240
C936        C  0.23212258  0.94441381  0.48517845    -0.06810
C937        C  0.20705278  0.92111133  0.47228550     0.14060
C938        C  0.20912612  0.88730333  0.47893812    -0.20300
C939        C  0.23673886  0.87479459  0.49586148    -0.06810
C940        C  0.26189224  0.89812596  0.00896825     0.14050
C941        C  0.29205990  0.88705313  0.02786246    -0.23640
H942        H  0.27841840  0.95045467  0.01318402     0.15340
H943        H  0.18932321  0.87017145  0.46920214     0.15360
C944        C  0.17803486  0.93101542  0.45080002    -0.23590
H945        H  0.30848465  0.90881218  0.03695707     0.05580
H946        H  0.30699891  0.86984057  0.01151201     0.08800
H947        H  0.28413947  0.87406806  0.04976542     0.08800
H948        H  0.18701815  0.93848539  0.42675504     0.08790
H949        H  0.16409193  0.95178072  0.46339161     0.08790
H950        H  0.15999420  0.90971971  0.44492851     0.05560
C951        C  0.20750895  0.59824577  0.99369277    -0.20240
C952        C  0.23524523  0.61156246  0.97839507    -0.06810
C953        C  0.26119156  0.58966270  0.96852781     0.14060
C954        C  0.25897933  0.55544563  0.97535875    -0.20300
C955        C  0.23155181  0.54262467  0.99175129    -0.06810
C956        C  0.20538799  0.56454927  0.00077755     0.14050
C957        C  0.17440660  0.55374959  0.01763672    -0.23640
H958        H  0.18719760  0.61458053  0.00098441     0.15340
H959        H  0.27925556  0.53880210  0.96887380     0.15360
C960        C  0.29183000  0.60229598  0.95231415    -0.23590
H961        H  0.15205126  0.56015308  0.00280409     0.05580
H962        H  0.17345948  0.56715945  0.04269919     0.08800
H963        H  0.17291142  0.52644700  0.52013529     0.08800
H964        H  0.30457590  0.62240929  0.96888461     0.08790
H965        H  0.28475105  0.61237723  0.42836890     0.08790
H966        H  0.30985384  0.58183417  0.94708810     0.05560
C967        C  0.34161970  0.90139364  0.22700098    -0.20240
C968        C  0.30909651  0.89601709  0.21291794    -0.06810
C969        C  0.30148414  0.86449152  0.19559402     0.14060
C970        C  0.32314277  0.83769198  0.20060086    -0.20300
C971        C  0.34680300  0.84164534  0.22704276    -0.06810
C972        C  0.36111744  0.87389752  0.23362194     0.14050
C973        C  0.39169335  0.87949216  0.25566989    -0.23640
H974        H  0.35007591  0.92636376  0.23683481     0.15340
H975        H  0.31593204  0.81245100  0.19071199     0.15360
C976        C  0.27033594  0.85844773  0.17431951    -0.23590
H977        H  0.40927911  0.89684690  0.24444421     0.05580
H978        H  0.40426507  0.85530290  0.25914122     0.08800
H979        H  0.38475629  0.89113653  0.28029985     0.08800
H980        H  0.26972834  0.87657676  0.15478532     0.08790
H981        H  0.24800587  0.86160345  0.18973986     0.08790
H982        H  0.26936524  0.83255882  0.16184649     0.05560
C983        C  0.20405138  0.63733983  0.27002494    -0.20240
C984        C  0.23384919  0.62126552  0.27695401    -0.06810
C985        C  0.25348729  0.63302671  0.30509736     0.14060
C986        C  0.24553462  0.66356065  0.32270906    -0.20300
C987        C  0.21796400  0.68203549  0.31288912    -0.06810
C988        C  0.19532779  0.66696807  0.28836276     0.14050
C989        C  0.16208997  0.68204755  0.28063871    -0.23640
H990        H  0.18704814  0.62620573  0.25073463     0.15340
H991        H  0.26251280  0.67433178  0.34216217     0.15360
C992        C  0.28245321  0.61301348  0.31671148    -0.23590
H993        H  0.14195719  0.66285888  0.28279910     0.05580
H994        H  0.16160869  0.69007536  0.25494984     0.08800
H995        H  0.15658355  0.70401315  0.29811892     0.08800
H996        H  0.30096355  0.60985507  0.29688739     0.08790
H997        H  0.27351966  0.58769869  0.32287740     0.08790
H998        H  0.29489635  0.62561702  0.33928071     0.05560
C999        C  0.21519828  0.50332172  0.38670077    -0.20240
C1000       C  0.24233427  0.98836570  0.37016504    -0.06810
C1001       C  0.26627662  0.97198613  0.38955112     0.14060
C1002       C  0.26230346  0.97122025  0.42405065    -0.20300
C1003       C  0.23493522  0.98571989  0.44038073    -0.06810
C1004       C  0.21077230  0.50164913  0.42098307     0.14050
C1005       C  0.17875877  0.51507535  0.43469188    -0.23640
H1006       H  0.19642588  0.51580879  0.37259614     0.15340
H1007       H  0.28068670  0.95862794  0.43854030     0.15360
C1008       C  0.29596662  0.95466073  0.37445617    -0.23590
H1009       H  0.15729733  0.50287377  0.42021610     0.05580
H1010       H  0.17800290  0.54276139  0.43271438     0.08800
H1011       H  0.17553319  0.50975101  0.46077683     0.08800
H1012       H  0.31222042  0.97331965  0.36322721     0.08790
H1013       H  0.28745848  0.93452186  0.35537088     0.08790
H1014       H  0.31136785  0.94255201  0.39324157     0.05560
C1015       C  0.21602874  0.48720018  0.09227910    -0.20240
C1016       C  0.24160904  0.50648840  0.10976427    -0.06810
C1017       C  0.26499587  0.02342484  0.09085856     0.14060
C1018       C  0.26144957  0.02143655  0.05589346    -0.20300
C1019       C  0.23513986  0.50320969  0.03842839    -0.06810
C1020       C  0.21211694  0.48567478  0.05739895     0.14050
C1021       C  0.18204221  0.46636451  0.04255889    -0.23640
H1022       H  0.19800845  0.47372461  0.10607516     0.15340
H1023       H  0.27938894  0.03477718  0.04190506     0.15360
C1024       C  0.29428735  0.04318731  0.10701274    -0.23590
H1025       H  0.18444448  0.43913626  0.04636136     0.05580
H1026       H  0.17846432  0.46934881  0.01592839     0.08800
H1027       H  0.15925819  0.47585073  0.05481041     0.08800
H1028       H  0.30952430  0.02657653  0.12196028     0.08790
H1029       H  0.28539893  0.06487917  0.12309373     0.08290
H1030       H  0.31071473  0.05350429  0.08841662     0.05560
C1031       C  0.38994112  0.68507390  0.29869251    -0.20240
C1032       C  0.39072430  0.69075177  0.26463136    -0.06810
C1033       C  0.36454655  0.67760754  0.24325672     0.14060
C1034       C  0.33569973  0.66564568  0.25777783    -0.20300
C1035       C  0.33172759  0.67421386  0.29178548    -0.06810
C1036       C  0.36041814  0.67434841  0.31218286     0.14050
C1037       C  0.35810940  0.67123736  0.34885746    -0.23640
H1038       H  0.41137398  0.69122096  0.31508662     0.15340
H1039       H  0.31392150  0.65879909  0.24208780     0.15360
C1040       C  0.36682539  0.67659424  0.20616159    -0.23590
H1041       H  0.38269326  0.67591256  0.36184623     0.05580
H1042       H  0.34952268  0.64532939  0.35324713     0.08800
H1043       H  0.34025125  0.68965933  0.35978900     0.08800
H1044       H  0.38882378  0.66189748  0.19813789     0.08790
H1045       H  0.36931463  0.70260534  0.19825357     0.08790
H1046       H  0.34427290  0.66448668  0.19351162     0.05560
C1047       C  0.12917753  0.80108192  0.23784957    -0.20240
C1048       C  0.11156456  0.78364039  0.26079537    -0.06810
C1049       C  0.11951743  0.78942051  0.29506243     0.14060
C1050       C  0.14448770  0.81279112  0.30545121    -0.20300
C1051       C  0.16596211  0.82548975  0.28249445    -0.06810
C1052       C  0.15676424  0.82185043  0.24830438     0.14050
C1053       C  0.17617523  0.83901442  0.22281449    -0.23640
H1054       H  0.12136030  0.79844534  0.21190211     0.15340
H1055       H  0.15109590  0.81636828  0.33170226     0.15360
C1056       C  0.10316939  0.76942160  0.32077995    -0.23590
H1057       H  0.16410037  0.83501553  0.19775015     0.05580
H1058       H  0.20158915  0.82886073  0.22113190     0.08800
H1059       H  0.17774449  0.86660579  0.22967861     0.08800
H1060       H  0.10534526  0.74199787  0.31377948     0.08790
H1061       H  0.07656565  0.77567353  0.32303112     0.08790
H1062       H  0.11512661  0.77476519  0.34576634     0.05560
C1063       C  0.00461993  0.76453462  0.43227420    -0.20240
C1064       C  0.48440349  0.73831893  0.44309541    -0.06810
C1065       C  0.47082884  0.71388176  0.41865491     0.14060
C1066       C  0.47765298  0.71634861  0.38499199    -0.20300
C1067       C  0.49655964  0.74324514  0.37406113    -0.06810
C1068       C  0.01025705  0.76771754  0.39824477     0.14050
C1069       C  0.03131670  0.79687589  0.38855839    -0.23640
H1070       H  0.01519325  0.78341057  0.45049161     0.15340
H1071       H  0.46693464  0.69751430  0.36673814     0.15360
C1072       C  0.44908378  0.68472859  0.42740893    -0.23590
H1073       H  0.04059023  0.81314465  0.41057695     0.05580
H1074       H  0.01648997  0.81283409  0.37259616     0.08800
H1075       H  0.05324760  0.78719457  0.37509594     0.08800
H1076       H  0.42432619  0.69403347  0.43473005     0.08790
H1077       H  0.46090532  0.67152748  0.44770378     0.08790
H1078       H  0.44471429  0.66583601  0.40595110     0.05560
C1079       C  0.98366286  0.76482890  0.09563815    -0.20240
C1080       C  0.99022877  0.73513151  0.11112519    -0.06810
C1081       C  0.49616834  0.70524506  0.09103328     0.14060
C1082       C  0.49686506  0.70615085  0.05629622    -0.20300
C1083       C  0.99238674  0.73629400  0.04064717    -0.06810
C1084       C  0.98533159  0.76601356  0.06090987     0.14050
C1085       C  0.98088640  0.79978808  0.04722688    -0.23640
H1086       H  0.97887386  0.78777956  0.11090502     0.15340
H1087       H  0.50185373  0.68320865  0.04143232     0.15360
C1088       C  0.50152476  0.67224181  0.10620244    -0.23590
H1089       H  0.95536319  0.80880435  0.05216516     0.05580
H1090       H  0.98471740  0.79891189  0.02034059     0.08800
H1091       H  0.99930865  0.81829223  0.05938368     0.08800
H1092       H  0.47971972  0.66610572  0.12111062     0.08790
H1093       H  0.52432753  0.67401044  0.12240927     0.08790
H1094       H  0.50462046  0.65109833  0.08699324     0.05560
C1095       C  0.09941051  0.96724559  0.20482652    -0.20240
C1096       C  0.11813577  0.47835130  0.23381786    -0.06810
C1097       C  0.10022633  0.49139125  0.26178066     0.14060
C1098       C  0.06580888  0.49636095  0.25879417    -0.20300
C1099       C  0.04707616  0.48629286  0.22987073    -0.06810
C1100       C  0.06418394  0.97088343  0.20261417     0.14050
C1101       C  0.04568506  0.95945675  0.17077990    -0.23640
H1102       H  0.11247011  0.95702041  0.18334964     0.15340
H1103       H  0.05321387  0.50858172  0.27963220     0.15360
C1104       C  0.11675702  0.50030872  0.29543259    -0.23590
H1105       H  0.06278909  0.94896548  0.15167021     0.05580
H1106       H  0.03258168  0.98085861  0.16066585     0.08800
H1107       H  0.02722993  0.93940880  0.17534856     0.08800
H1108       H  0.13218980  0.52372730  0.29523260     0.08790
H1109       H  0.13225806  0.47908742  0.30268471     0.08790
H1110       H  0.09816521  0.50506597  0.31500648     0.05560
C1111       C  0.39672857  0.51684285  0.21251118    -0.20240
C1112       C  0.37958386  0.01095273  0.24168616    -0.06810
C1113       C  0.39817870  0.99663651  0.26750780     0.14060
C1114       C  0.43166507  0.98792274  0.26292499    -0.20300
C1115       C  0.44859995  0.99305276  0.23377514    -0.06810
C1116       C  0.43054083  0.50779295  0.20808688     0.14050
C1117       C  0.44532664  0.51248612  0.17493608    -0.23640
H1118       H  0.38327028  0.52725401  0.19222078     0.15340
H1119       H  0.44453908  0.97589962  0.28238688     0.15360
C1120       C  0.38327584  0.98915872  0.30011178    -0.23590
H1121       H  0.42962789  0.49877771  0.15504917     0.05580
H1122       H  0.47084585  0.50264426  0.17287253     0.08800
H1123       H  0.44612212  0.53975599  0.17069572     0.08800
H1124       H  0.36326987  0.96949874  0.29592308     0.08790
H1125       H  0.37338623  0.01260952  0.31257361     0.08790
H1126       H  0.40194581  0.97934135  0.31749731     0.05560
C1127       C  0.46934929  0.92012901  0.20547675    -0.20240
C1128       C  0.48451096  0.94059712  0.23203560    -0.06810
C1129       C  0.99413620  0.92459612  0.26095126     0.14060
C1130       C  0.98909174  0.88956166  0.26191756    -0.20300
C1131       C  0.47509249  0.86881663  0.23509024    -0.06810
C1132       C  0.46494648  0.88467442  0.20635951     0.14050
C1133       C  0.44936354  0.86465380  0.17663160    -0.23640
H1134       H  0.46066799  0.93214376  0.18377820     0.15340
H1135       H  0.99675206  0.87806435  0.28424635     0.15360
C1136       C  0.00978346  0.94322865  0.29151314    -0.23590
H1137       H  0.44305788  0.88098620  0.15638858     0.05580
H1138       H  0.42596889  0.85210922  0.18374157     0.08800
H1139       H  0.46695057  0.84537000  0.16681087     0.08800
H1140       H  0.99471629  0.96461033  0.30068628     0.08790
H1141       H  0.03521740  0.95156048  0.28639540     0.08790
H1142       H  0.01234119  0.92677082  0.31236432     0.05560
C1143       C  0.02180777  0.55301876  0.20039206    -0.20240
C1144       C  0.01049129  0.53711102  0.22819975    -0.06810
C1145       C  0.50425236  0.55789877  0.25729469     0.14060
C1146       C  0.50891055  0.59298728  0.25760738    -0.20300
C1147       C  0.01995215  0.60920280  0.22988306    -0.06810
C1148       C  0.02621909  0.58856314  0.20066337     0.14050
C1149       C  0.03724973  0.60359791  0.16964982    -0.23640
H1150       H  0.02757323  0.53747532  0.17824871     0.15340
H1151       H  0.50390480  0.60784965  0.28047211     0.15360
C1152       C  0.49391725  0.54444880  0.28929529    -0.23590
H1153       H  0.04090414  0.58388124  0.14915207     0.05580
H1154       H  0.06128786  0.61757675  0.17461851     0.08800
H1155       H  0.01804956  0.62099663  0.16118936     0.08800
H1156       H  0.49253910  0.51680874  0.28788105     0.08790
H1157       H  0.46906654  0.55421151  0.29600995     0.08790
H1158       H  0.51231991  0.55279576  0.30939350     0.05560
C1159       C  0.01177092  0.49898607  0.72789877     0.00630
C1160       C  0.48343464  0.97866888  0.73056600     0.00630
Zn1161     Zn  0.49284295  0.70639932  0.77118129     1.49720
Zn1162     Zn  0.03206100  0.71939027  0.71062537     1.49360
Zn1163     Zn  0.46013730  0.75612307  0.71463984     1.49110
Zn1164     Zn  0.00925904  0.77635107  0.77297972     1.49480
O1165       O  0.49838508  0.73990791  0.74007719    -1.84060
O1166       O  0.50753786  0.66127409  0.75813232    -0.74690
O1167       O  0.01922917  0.72786379  0.66247972    -0.74510
O1168       O  0.42003679  0.72932441  0.73169440    -0.74030
O1169       O  0.03285754  0.66583699  0.71126107    -0.74710
O1170       O  0.44689106  0.69914958  0.76802135    -0.74310
O1171       O  0.46672341  0.74513325  0.66475350    -0.74890
O1172       O  0.99474081  0.82076852  0.76008811    -0.74280
O1173       O  0.07585819  0.74446390  0.72701431    -0.75040
O1174       O  0.45786511  0.80963916  0.71915701    -0.74430
O1175       O  0.05572878  0.77913489  0.76773176    -0.74900
O1176       O  0.00043028  0.77138831  0.82282284    -0.74810
O1177       O  0.50239640  0.71610586  0.82003939    -0.74590
C1178       C  0.02093123  0.64738213  0.73290709     0.77200
C1179       C  0.99209303  0.73604199  0.64811320     0.77690
C1180       C  0.42056631  0.70726951  0.75334715     0.76650
C1181       C  0.47524254  0.83108634  0.73806084     0.77020
C1182       C  0.07958085  0.76761941  0.75089421     0.78160
C1183       C  0.50071780  0.74399973  0.83730862     0.77210
Zn1184     Zn  0.28191265  0.98475787  0.76903557     1.49720
Zn1185     Zn  0.27325173  0.53429793  0.71573604     1.49360
Zn1186     Zn  0.22611720  0.96654097  0.70701071     1.49110
Zn1187     Zn  0.21531584  0.51651586  0.76967870     1.49480
O1188       O  0.24823395  0.00057472  0.73918830    -1.84060
O1189       O  0.32687707  0.00810057  0.76876341    -0.74690
O1190       O  0.26028805  0.52918167  0.66520138    -0.74510
O1191       O  0.25718748  0.92552090  0.70503537    -0.74030
O1192       O  0.32502957  0.52573456  0.71870835    -0.74710
O1193       O  0.29277824  0.94206297  0.74670568    -0.74310
O1194       O  0.22943603  0.98203276  0.66046834    -0.74890
O1195       O  0.16969194  0.50310715  0.75373265    -0.74280
O1196       O  0.26048756  0.58022718  0.74006825    -0.75040
O1197       O  0.17383987  0.96077159  0.71533972    -0.74430
O1198       O  0.21916532  0.56499851  0.77247338    -0.74900
O1199       O  0.22098135  0.50440893  0.81758850    -0.74810
O1200       O  0.27000206  0.98086491  0.81747652    -0.74590
C1201       C  0.34209402  0.01594110  0.74324957     0.77200
C1202       C  0.24388954  0.50623470  0.64714402     0.77690
C1203       C  0.28439500  0.92216464  0.72170238     0.76650
C1204       C  0.15585116  0.48027023  0.73412063     0.77020
C1205       C  0.23810521  0.58715514  0.76158071     0.78160
C1206       C  0.24459169  0.99099716  0.83320082     0.77210
C1207       C  0.23166270  0.50691752  0.50125639     0.00630
C1208       C  0.23174626  0.98051437  0.97695947     0.00630
C1209       C  0.00022874  0.73629503  0.50424310     0.00630
C1210       C  0.47612967  0.73781809  0.97954195     0.00630
Zn1211     Zn  0.26710347  0.71357185  0.95731515     1.49720
Zn1212     Zn  0.21040010  0.71341198  0.51060348     1.49360
Zn1213     Zn  0.26962318  0.77266947  0.51301633     1.49110
Zn1214     Zn  0.20623495  0.77152400  0.96692995     1.49480
O1215       O  0.23840978  0.74232085  0.48691482    -1.84060
O1216       O  0.25380243  0.66341021  0.95619273    -0.74690
O1217       O  0.22034247  0.72457282  0.55744346    -0.74510
O1218       O  0.31800853  0.76164885  0.50733269    -0.74030
O1219       O  0.22137171  0.66586958  0.49981408    -0.74710
O1220       O  0.31636019  0.71602587  0.97217806    -0.74310
O1221       O  0.26012927  0.76503267  0.55831683    -0.74890
O1222       O  0.21473818  0.81968768  0.98230323    -0.74280
O1223       O  0.16036399  0.71794158  0.50394626    -0.75040
O1224       O  0.26358652  0.82288289  0.50837979    -0.74430
O1225       O  0.15790850  0.76204892  0.97399251    -0.74900
O1226       O  0.21598194  0.76165798  0.92013016    -0.74810
O1227       O  0.26285544  0.73528844  0.91384212    -0.74590
C1228       C  0.23713567  0.64883591  0.47767147     0.77200
C1229       C  0.24051820  0.74577744  0.57249172     0.77690
C1230       C  0.33268892  0.73773414  0.99135846     0.76650
C1231       C  0.23854224  0.83730775  0.99632870     0.77020
C1232       C  0.14354442  0.73961199  0.48955489     0.78160
C1233       C  0.24731945  0.76296164  0.91755323     0.77210
Zn1234     Zn  0.26664518  0.81802308  0.76765900     1.49720
Zn1235     Zn  0.24852126  0.78291729  0.82803057     1.49360
Zn1236     Zn  0.25427069  0.74226782  0.77354039     1.49110
Zn1237     Zn  0.31949215  0.78155927  0.80527852     1.49480
O1238       O  0.27428156  0.78152884  0.79233196    -1.84060
O1239       O  0.22361257  0.84063856  0.77825258    -0.74690
O1240       O  0.23915874  0.73448695  0.84032368    -0.74510
O1241       O  0.24854512  0.74436818  0.72713104    -0.74030
O1242       O  0.20839918  0.80290712  0.81295238    -0.74710
O1243       O  0.26016427  0.79877317  0.72183416    -0.74310
O1244       O  0.21112119  0.73532630  0.79383025    -0.74890
O1245       O  0.32815798  0.73228786  0.80823768    -0.74280
O1246       O  0.27259549  0.81352651  0.85763620    -0.75040
O1247       O  0.28448622  0.70561545  0.78137771    -0.74430
O1248       O  0.32657854  0.81234875  0.84840331    -0.74900
O1249       O  0.34274069  0.80009505  0.76662142    -0.74810
O1250       O  0.30923210  0.84392627  0.77020944    -0.74590
C1251       C  0.20119137  0.82480742  0.79281045     0.77200
C1252       C  0.22026765  0.71915635  0.81797305     0.77690
C1253       C  0.25280007  0.76906485  0.70983453     0.76650
C1254       C  0.31295201  0.70532726  0.79577794     0.77020
C1255       C  0.30216454  0.82328653  0.86547655     0.78160
C1256       C  0.33348423  0.82820576  0.75680852     0.77210
C1257       C  0.30109290  0.79426415  0.93115150    -0.20240
C1258       C  0.26615681  0.79543579  0.92513140    -0.06810
C1259       C  0.25256845  0.82752000  0.91859642     0.14060
C1260       C  0.27565340  0.85316720  0.91101574    -0.20300
C1261       C  0.30643242  0.84154762  0.89900516    -0.06810
C1262       C  0.32172758  0.82008517  0.92021429     0.14050
C1263       C  0.35890657  0.81753387  0.92111124    -0.23640
H1264       H  0.31234554  0.77175577  0.93922539     0.15340
H1265       H  0.26622467  0.87622853  0.90197760     0.15360
C1266       C  0.21647408  0.83165846  0.90812761    -0.23590
H1267       H  0.36873692  0.82902951  0.94531645     0.05580
H1268       H  0.37022456  0.83177028  0.90151661     0.08800
H1269       H  0.36641299  0.79078812  0.91730491     0.08800
H1270       H  0.19894936  0.82263263  0.92617389     0.08790
H1271       H  0.21122195  0.81704813  0.88398652     0.08790
H1272       H  0.21088117  0.85851863  0.90502145     0.05560
C1273       C  0.26923292  0.73676145  0.62378212    -0.20240
C1274       C  0.24128954  0.74886007  0.60769569    -0.06810
C1275       C  0.21693823  0.76747232  0.62489332     0.14060
C1276       C  0.22148524  0.77420397  0.65884684    -0.20300
C1277       C  0.24966383  0.76249799  0.67486867    -0.06810
C1278       C  0.27363099  0.74320115  0.65774920     0.14050
C1279       C  0.30387100  0.73002204  0.67511788    -0.23640
H1280       H  0.28777682  0.72287003  0.60962011     0.15340
H1281       H  0.20316003  0.78843424  0.67287876     0.15360
C1282       C  0.18696612  0.78089191  0.60732950    -0.23590
H1283       H  0.32030306  0.71610644  0.65739142     0.05580
H1284       H  0.29603294  0.71244815  0.69360816     0.08800
H1285       H  0.31862662  0.75127979  0.68796626     0.08800
H1286       H  0.17203371  0.75960213  0.59471945     0.08790
H1287       H  0.19517398  0.79805742  0.58860360     0.08790
H1288       H  0.17065565  0.79523689  0.62486861     0.05560
C1289       C  0.38631487  0.76700826  0.98515056    -0.20240
C1290       C  0.36964311  0.73755061  0.99272672    -0.06810
C1291       C  0.38849520  0.70932988  0.50028386     0.14060
C1292       C  0.42359172  0.71123850  0.49896735    -0.20300
C1293       C  0.43997903  0.73975485  0.98780181    -0.06810
C1294       C  0.42084288  0.76824077  0.98130438     0.14050
C1295       C  0.43549808  0.80042880  0.96996329    -0.23640
H1296       H  0.37189672  0.78903708  0.98106215     0.15340
H1297       H  0.43811113  0.68948835  0.50427244     0.15360
C1298       C  0.37173463  0.67744513  0.50979136    -0.23590
H1299       H  0.42571838  0.80426447  0.94466481     0.05580
H1300       H  0.42847312  0.82210846  0.98716509     0.08800
H1301       H  0.46286211  0.80063283  0.96919005     0.08800
H1302       H  0.35535359  0.66653457  0.48898841     0.08790
H1303       H  0.35655710  0.68310525  0.53199436     0.08790
H1304       H  0.39017927  0.65815488  0.51569974     0.05560
C1305       C  0.08871907  0.70923701  0.48300871    -0.20240
C1306       C  0.10677595  0.73934596  0.49156138    -0.06810
C1307       C  0.08952182  0.76869474  0.00249379     0.14060
C1308       C  0.05484255  0.76681243  0.00558955    -0.20300
C1309       C  0.03657857  0.73672817  0.49698743    -0.06810
C1310       C  0.05375074  0.70770649  0.48479755     0.14050
C1311       C  0.03569792  0.67523488  0.47307354    -0.23640
H1312       H  0.10205185  0.68696648  0.47425433     0.15340
H1313       H  0.04191290  0.78904484  0.01490772     0.15360
C1314       C  0.10765246  0.80171673  0.01222293    -0.23590
H1315       H  0.05330719  0.65499907  0.46561151     0.05580
H1316       H  0.01980117  0.67926401  0.45107711     0.08800
H1317       H  0.02015557  0.66597696  0.49269116     0.08800
H1318       H  0.12000231  0.81103450  0.99038655     0.08790
H1319       H  0.12663118  0.79820656  0.03207037     0.08790
H1320       H  0.09041354  0.82152400  0.02169078     0.05560
C1321       C  0.25895378  0.93264190  0.50381209    -0.20240
C1322       C  0.23212421  0.94445713  0.98518799    -0.06810
C1323       C  0.20705519  0.92115390  0.97229499     0.14060
C1324       C  0.20913073  0.88734603  0.97894622    -0.20300
C1325       C  0.23674592  0.87483773  0.99586607    -0.06810
C1326       C  0.26188625  0.89808214  0.50896288     0.14050
C1327       C  0.29205208  0.88700918  0.52785993    -0.23640
H1328       H  0.27841601  0.95040961  0.51317579     0.15340
H1329       H  0.18932826  0.87021369  0.96921003     0.15360
C1330       C  0.17803722  0.93105619  0.95080839    -0.23590
H1331       H  0.30847788  0.90876781  0.53695339     0.05580
H1332       H  0.30699089  0.86979410  0.51151183     0.08800
H1333       H  0.28412952  0.87402709  0.54976395     0.08800
H1334       H  0.18702060  0.93852225  0.92676211     0.08790
H1335       H  0.16409468  0.95182345  0.96339699     0.08790
H1336       H  0.15999593  0.90976052  0.94493952     0.05560
C1337       C  0.20752108  0.59820445  0.49370235    -0.20240
C1338       C  0.23525839  0.61152093  0.47840624    -0.06810
C1339       C  0.26120269  0.58962045  0.46853512     0.14060
C1340       C  0.25898724  0.55540219  0.47536067    -0.20300
C1341       C  0.23155848  0.54258138  0.49175141    -0.06810
C1342       C  0.20539702  0.56450699  0.50078191     0.14050
C1343       C  0.17441520  0.55370759  0.51764061    -0.23640
H1344       H  0.18721094  0.61453982  0.50099630     0.15340
H1345       H  0.27926180  0.53875746  0.46887303     0.15360
C1346       C  0.29184194  0.60225379  0.45232287    -0.23590
H1347       H  0.15206003  0.56011642  0.50281055     0.05580
H1348       H  0.17347066  0.56711323  0.54270522     0.08800
H1349       H  0.17290588  0.52648976  0.02013638     0.08800
H1350       H  0.30458930  0.62236432  0.46889557     0.08790
H1351       H  0.28473841  0.61241570  0.92835858     0.08790
H1352       H  0.30986420  0.58179110  0.44709406     0.05560
C1353       C  0.34158262  0.90132569  0.72696785    -0.20240
C1354       C  0.30905287  0.89595619  0.71290016    -0.06810
C1355       C  0.30142607  0.86443267  0.69557845     0.14060
C1356       C  0.32308220  0.83762806  0.70057213    -0.20300
C1357       C  0.34675792  0.84157602  0.72700051    -0.06810
C1358       C  0.36108044  0.87382530  0.73357398     0.14050
C1359       C  0.39166751  0.87941253  0.75560700    -0.23640
H1360       H  0.35004634  0.92629383  0.73680063     0.15340
H1361       H  0.31586167  0.81238850  0.69068650     0.15360
C1362       C  0.27026535  0.85839607  0.67432153    -0.23590
H1363       H  0.40924682  0.89676977  0.74437640     0.05580
H1364       H  0.40424041  0.85522117  0.75906506     0.08800
H1365       H  0.38474386  0.89105101  0.78024359     0.08800
H1366       H  0.26965122  0.87652361  0.65478613     0.08790
H1367       H  0.24794522  0.86155997  0.68975477     0.08790
H1368       H  0.26928170  0.83250651  0.66185041     0.05560
C1369       C  0.20405232  0.63729486  0.77006501    -0.20240
C1370       C  0.23385848  0.62122425  0.77696911    -0.06810
C1371       C  0.25350986  0.63297799  0.80510595     0.14060
C1372       C  0.24556222  0.66350560  0.82273224    -0.20300
C1373       C  0.21798252  0.68197939  0.81293419    -0.06810
C1374       C  0.19533320  0.66691445  0.78841928     0.14050
C1375       C  0.16208653  0.68198961  0.78072380    -0.23640
H1376       H  0.18703906  0.62616377  0.75078212     0.15340
H1377       H  0.26254991  0.67427358  0.84217848     0.15360
C1378       C  0.28248278  0.61296204  0.81669932    -0.23590
H1379       H  0.14196042  0.66279591  0.78289333     0.05580
H1380       H  0.16158399  0.69002526  0.75503779     0.08800
H1381       H  0.15658874  0.70394946  0.79821459     0.08800
H1382       H  0.30098374  0.60981123  0.79686578     0.08790
H1383       H  0.27355442  0.58764396  0.82286083     0.08790
H1384       H  0.29493506  0.62555872  0.83926680     0.05560
C1385       C  0.21520618  0.50333240  0.88669700    -0.20240
C1386       C  0.24234000  0.98836727  0.87016700    -0.06810
C1387       C  0.26628347  0.97199855  0.88956089     0.14060
C1388       C  0.26231113  0.97124962  0.92406205    -0.20300
C1389       C  0.23494204  0.98575520  0.94038620    -0.06810
C1390       C  0.21078030  0.50167647  0.92098118     0.14050
C1391       C  0.17876682  0.51510958  0.93468393    -0.23640
H1392       H  0.19643399  0.51581332  0.87258644     0.15340
H1393       H  0.28069441  0.95866380  0.93855752     0.15360
C1394       C  0.29597329  0.95466675  0.87447274    -0.23590
H1395       H  0.15730533  0.50290490  0.92021066     0.05580
H1396       H  0.17801304  0.54279430  0.93269705     0.08800
H1397       H  0.17553889  0.50979449  0.96077098     0.08800
H1398       H  0.31222536  0.97331945  0.86323284     0.08790
H1399       H  0.28746489  0.93451835  0.85539737     0.08790
H1400       H  0.31137627  0.94256898  0.89326440     0.05560
C1401       C  0.21603238  0.48716408  0.59227655    -0.20240
C1402       C  0.24161324  0.50645294  0.60976048    -0.06810
C1403       C  0.26500244  0.02338409  0.59085362     0.14060
C1404       C  0.26145784  0.02139031  0.55588829    -0.20300
C1405       C  0.23514688  0.50316423  0.53842430    -0.06810
C1406       C  0.21212215  0.48563356  0.55739619     0.14050
C1407       C  0.18204709  0.46632279  0.54255721    -0.23640
H1408       H  0.19801028  0.47369200  0.60607361     0.15340
H1409       H  0.27939896  0.03472726  0.54189868     0.15360
C1410       C  0.29429480  0.04314601  0.60700664    -0.23590
H1411       H  0.18444830  0.43909517  0.54636303     0.05580
H1412       H  0.17846979  0.46930374  0.51592594     0.08800
H1413       H  0.15926303  0.47581124  0.55480708     0.08800
H1414       H  0.30952936  0.02653618  0.62195747     0.08790
H1415       H  0.28540740  0.06484080  0.62308435     0.08290
H1416       H  0.31072413  0.05345860  0.58840968     0.05560
C1417       C  0.38994562  0.68505484  0.79869021    -0.20240
C1418       C  0.39072374  0.69073942  0.76463026    -0.06810
C1419       C  0.36454923  0.67758814  0.74325517     0.14060
C1420       C  0.33570857  0.66561090  0.75777590    -0.20300
C1421       C  0.33173582  0.67417221  0.79178456    -0.06810
C1422       C  0.36042832  0.67431307  0.81217992     0.14050
C1423       C  0.35812406  0.67119490  0.84885382    -0.23640
H1424       H  0.41137759  0.69120736  0.81508401     0.15340
H1425       H  0.31393163  0.65875747  0.74208639     0.15360
C1426       C  0.36682515  0.67658272  0.70616023    -0.23590
H1427       H  0.38270678  0.67588075  0.86184212     0.05580
H1428       H  0.34955097  0.64528175  0.85324024     0.08800
H1429       H  0.34025735  0.68960601  0.85978854     0.08800
H1430       H  0.38882930  0.66189710  0.69813276     0.08790
H1431       H  0.36930240  0.70259665  0.69825671     0.08790
H1432       H  0.34427662  0.66446739  0.69350981     0.05560
C1433       C  0.12917456  0.80105593  0.73788335    -0.20240
C1434       C  0.11156138  0.78359529  0.76081417    -0.06810
C1435       C  0.11951467  0.78934453  0.79508308     0.14060
C1436       C  0.14448856  0.81270408  0.80548963    -0.20300
C1437       C  0.16596093  0.82542622  0.78254352    -0.06810
C1438       C  0.15676271  0.82181498  0.74835249     0.14050
C1439       C  0.17617418  0.83899689  0.72287457    -0.23640
H1440       H  0.12135566  0.79844183  0.71193593     0.15340
H1441       H  0.15109660  0.81625875  0.83174182     0.15360
C1442       C  0.10316013  0.76932575  0.82078197    -0.23590
H1443       H  0.16409459  0.83502250  0.69781065     0.05580
H1444       H  0.20158391  0.82883550  0.72117730     0.08800
H1445       H  0.17775244  0.86658397  0.72976067     0.08800
H1446       H  0.10533665  0.74190576  0.81376277     0.08790
H1447       H  0.07655537  0.77557446  0.82303180     0.08790
H1448       H  0.11511218  0.77465166  0.84577289     0.05560
C1449       C  0.00460323  0.76459360  0.93226906    -0.20240
C1450       C  0.48440437  0.73831572  0.94309465    -0.06810
C1451       C  0.47082431  0.71388159  0.91865408     0.14060
C1452       C  0.47764463  0.71634982  0.88499046    -0.20300
C1453       C  0.49655257  0.74324510  0.87405911    -0.06810
C1454       C  0.01023609  0.76776928  0.89823730     0.14050
C1455       C  0.03128114  0.79693387  0.88854049    -0.23640
H1456       H  0.01517299  0.78347648  0.95048164     0.15340
H1457       H  0.46692257  0.69751769  0.86673659     0.15360
C1458       C  0.44907816  0.68472964  0.92740908    -0.23590
H1459       H  0.04055165  0.81321126  0.91055443     0.05580
H1460       H  0.01644332  0.81288129  0.87257690     0.08800
H1461       H  0.05321371  0.78726061  0.87507505     0.08800
H1462       H  0.42432183  0.69403605  0.93473254     0.08790
H1463       H  0.46090056  0.67152720  0.94770261     0.08790
H1464       H  0.44470585  0.66583791  0.90595102     0.05560
C1465       C  0.98363733  0.76478161  0.59562703    -0.20240
C1466       C  0.99021713  0.73509328  0.61112388    -0.06810
C1467       C  0.49614274  0.70525346  0.59103173     0.14060
C1468       C  0.49684359  0.70615962  0.55629512    -0.20300
C1469       C  0.99237852  0.73623581  0.54064448    -0.06810
C1470       C  0.98530978  0.76595729  0.56089827     0.14050
C1471       C  0.98085877  0.79972654  0.54720605    -0.23640
H1472       H  0.97883764  0.78773395  0.61088695     0.15340
H1473       H  0.50182105  0.68321479  0.54143078     0.15360
C1474       C  0.50148150  0.67224707  0.60620045    -0.23590
H1475       H  0.95533007  0.80873425  0.55213120     0.05580
H1476       H  0.98470301  0.79884674  0.52032191     0.08800
H1477       H  0.99927026  0.81823951  0.55936693     0.08800
H1478       H  0.47967166  0.66612102  0.62110625     0.08790
H1479       H  0.52428262  0.67400498  0.62240969     0.08790
H1480       H  0.50456994  0.65110221  0.58699111     0.05560
C1481       C  0.09940794  0.96723823  0.70482304    -0.20240
C1482       C  0.11813418  0.47833648  0.73381516    -0.06810
C1483       C  0.10022710  0.49137689  0.76177920     0.14060
C1484       C  0.06581093  0.49635225  0.75879319    -0.20300
C1485       C  0.04707776  0.48628935  0.72986889    -0.06810
C1486       C  0.06418256  0.97088133  0.70261088     0.14050
C1487       C  0.04568322  0.95946145  0.67077498    -0.23640
H1488       H  0.11246656  0.95701353  0.68334531     0.15340
H1489       H  0.05321721  0.50857161  0.77963269     0.15360
C1490       C  0.11675876  0.50028850  0.79543177    -0.23590
H1491       H  0.06278650  0.94897110  0.65166414     0.05580
H1492       H  0.03258270  0.98086655  0.66066396     0.08800
H1493       H  0.02722591  0.93941445  0.67533999     0.08800
H1494       H  0.13219553  0.52370470  0.79523398     0.08790
H1495       H  0.13225597  0.47906362  0.80268186     0.08790
H1496       H  0.09816756  0.50504726  0.81500598     0.05560
C1497       C  0.39672580  0.51681079  0.71249946    -0.20240
C1498       C  0.37958726  0.01093260  0.74168083    -0.06810
C1499       C  0.39819230  0.99664318  0.76751175     0.14060
C1500       C  0.43167949  0.98793505  0.76292823    -0.20300
C1501       C  0.44860578  0.99304976  0.73377036    -0.06810
C1502       C  0.43054033  0.50777048  0.70807632     0.14050
C1503       C  0.44532140  0.51245297  0.67492118    -0.23640
H1504       H  0.38326010  0.52720333  0.69220305     0.15340
H1505       H  0.44456072  0.97592800  0.78239620     0.15360
C1506       C  0.38330118  0.98919177  0.80012856    -0.23590
H1507       H  0.42962743  0.49872769  0.65504096     0.05580
H1508       H  0.47084570  0.50262334  0.67286203     0.08800
H1509       H  0.44610372  0.53971969  0.67066680     0.08800
H1510       H  0.36331065  0.96951282  0.79596402     0.08790
H1511       H  0.37339455  0.01264663  0.81256600     0.08790
H1512       H  0.40198276  0.97941009  0.81752471     0.05560
C1513       C  0.46935588  0.92012781  0.70547005    -0.20240
C1514       C  0.48451675  0.94059567  0.73202949    -0.06810
C1515       C  0.99413906  0.92458710  0.76094040     0.14060
C1516       C  0.98909090  0.88955318  0.76190314    -0.20300
C1517       C  0.47509368  0.86881632  0.73508527    -0.06810
C1518       C  0.46495241  0.88467345  0.70635275     0.14050
C1519       C  0.44937399  0.86465221  0.67662286    -0.23640
H1520       H  0.46067631  0.93214244  0.68377081     0.15340
H1521       H  0.99674866  0.87805329  0.78423129     0.15360
C1522       C  0.00979219  0.94321378  0.79150255    -0.23590
H1523       H  0.44307303  0.88098399  0.65637801     0.05580
H1524       H  0.42597730  0.85210868  0.68372880     0.08800
H1525       H  0.46696204  0.84536736  0.66680634     0.08800
H1526       H  0.99473116  0.96459853  0.80067889     0.08790
H1527       H  0.03522792  0.95153921  0.78638344     0.08790
H1528       H  0.01234724  0.92675368  0.81235221     0.05560
C1529       C  0.02180198  0.55301867  0.70039823    -0.20240
C1530       C  0.01049160  0.53710785  0.72820602    -0.06810
C1531       C  0.50425569  0.55789774  0.75728948     0.14060
C1532       C  0.50890802  0.59298662  0.75760095    -0.20300
C1533       C  0.01994470  0.60920025  0.72989398    -0.06810
C1534       C  0.02621018  0.58856320  0.70067195     0.14050
C1535       C  0.03723654  0.60360048  0.66965811    -0.23640
H1536       H  0.02756552  0.53747751  0.67825289     0.15340
H1537       H  0.50390478  0.60784835  0.78046672     0.15360
C1538       C  0.49393043  0.54444702  0.78929281    -0.23590
H1539       H  0.04089106  0.58388523  0.64915908     0.05580
H1540       H  0.06127381  0.61758133  0.67462519     0.08800
H1541       H  0.01803366  0.62099738  0.66119996     0.08800
H1542       H  0.49255856  0.51680695  0.78787948     0.08790
H1543       H  0.46907911  0.55420478  0.79601218     0.08790
H1544       H  0.51233562  0.55279830  0.80938731     0.05560
C1545       C  0.51176869  0.99896930  0.22790445     0.00630
C1546       C  0.98343049  0.47868991  0.23056774     0.00630
Zn1547     Zn  0.99284391  0.20641761  0.27118099     1.49720
Zn1548     Zn  0.53208312  0.21937688  0.21063190     1.49360
Zn1549     Zn  0.96014357  0.25614542  0.21464396     1.49110
Zn1550     Zn  0.50926825  0.27633173  0.27299041     1.49480
O1551       O  0.99839226  0.23992937  0.24008064    -1.84060
O1552       O  0.00754294  0.16129479  0.25813098    -0.74690
O1553       O  0.51924538  0.22784181  0.16248355    -0.74510
O1554       O  0.92004219  0.22934151  0.23168987    -0.74030
O1555       O  0.53289217  0.16582069  0.21127226    -0.74710
O1556       O  0.94689142  0.19916332  0.26801707    -0.74310
O1557       O  0.96673277  0.24516790  0.16475688    -0.74890
O1558       O  0.49473482  0.32075255  0.26011081    -0.74280
O1559       O  0.57587624  0.24447254  0.22701255    -0.75040
O1560       O  0.95786615  0.30966011  0.21916771    -0.74430
O1561       O  0.55573643  0.27913576  0.26772894    -0.74900
O1562       O  0.50045337  0.27135190  0.32283487    -0.74810
O1563       O  0.00239258  0.21612137  0.32003959    -0.74590
C1564       C  0.52094515  0.14736425  0.23290702     0.77200
C1565       C  0.49211049  0.23602288  0.14811624     0.77690
C1566       C  0.92056847  0.20728403  0.25334006     0.76650
C1567       C  0.97524304  0.33110782  0.23807124     0.77020
C1568       C  0.57959217  0.26763368  0.25088857     0.78160
C1569       C  0.00072276  0.24401481  0.33731101     0.77210
Zn1570     Zn  0.78192135  0.48481522  0.26904170     1.49720
Zn1571     Zn  0.77324391  0.03432240  0.21572929     1.49360
Zn1572     Zn  0.72612696  0.46655889  0.20701942     1.49110
Zn1573     Zn  0.71531084  0.01654509  0.26968056     1.49480
O1574       O  0.74823155  0.50060661  0.23919099    -1.84060
O1575       O  0.82687330  0.50819000  0.26878074    -0.74690
O1576       O  0.76027703  0.02919692  0.16519661    -0.74510
O1577       O  0.75721729  0.42555061  0.20505436    -0.74030
O1578       O  0.82502223  0.02575291  0.21869814    -0.74710
O1579       O  0.79281165  0.44213232  0.24670842    -0.74310
O1580       O  0.72943757  0.48204208  0.16047095    -0.74890
O1581       O  0.66968801  0.00312528  0.25373178    -0.74280
O1582       O  0.76047509  0.08025461  0.24005305    -0.75040
O1583       O  0.67384934  0.46077926  0.21535290    -0.74430
O1584       O  0.71915852  0.06503120  0.27246877    -0.74900
O1585       O  0.72097740  0.00443095  0.31759122    -0.74810
O1586       O  0.77000481  0.48089814  0.31747633    -0.74590
C1587       C  0.84209022  0.51598755  0.24325172     0.77200
C1588       C  0.74388260  0.00624475  0.14714231     0.77690
C1589       C  0.78443327  0.42221811  0.22171586     0.76650
C1590       C  0.65585314  0.98027826  0.23412639     0.77020
C1591       C  0.73809442  0.08718640  0.26156663     0.78160
C1592       C  0.74459057  0.49101806  0.33320123     0.77210
C1593       C  0.73165587  0.00691820  0.00125326     0.00630
C1594       C  0.73174575  0.48047320  0.47695300     0.00630
C1595       C  0.50023076  0.23628166  0.00424405     0.00630
C1596       C  0.97612909  0.23782687  0.47954274     0.00630
Zn1597     Zn  0.76710658  0.21353105  0.45731987     1.49720
Zn1598     Zn  0.71040405  0.21340937  0.01059889     1.49360
Zn1599     Zn  0.76961709  0.27267505  0.01300378     1.49110
Zn1600     Zn  0.70622880  0.27147496  0.46693350     1.49480
O1601       O  0.73840816  0.24232070  0.98690669    -1.84060
O1602       O  0.75381699  0.16336821  0.45620649    -0.74690
O1603       O  0.72035458  0.22456483  0.05743851    -0.74510
O1604       O  0.81800325  0.26167018  0.00732397    -0.74030
O1605       O  0.72137493  0.16586855  0.99980339    -0.74710
O1606       O  0.81636461  0.21600237  0.47217775    -0.74310
O1607       O  0.76013064  0.26503437  0.05830045    -0.74890
O1608       O  0.71473064  0.31964346  0.48230025    -0.74280
O1609       O  0.66036726  0.21793872  0.00394832    -0.75040
O1610       O  0.76357221  0.32288479  0.00837189    -0.74430
O1611       O  0.65790419  0.26199572  0.47400277    -0.74900
O1612       O  0.71596760  0.26159097  0.42013232    -0.74810
O1613       O  0.76284348  0.23522826  0.41383720    -0.74590
C1614       C  0.73714276  0.14883559  0.97766338     0.77200
C1615       C  0.74052958  0.24577435  0.07248059     0.77690
C1616       C  0.83268842  0.23771025  0.49136322     0.76650
C1617       C  0.73853372  0.33726486  0.49632649     0.77020
C1618       C  0.64354465  0.23960212  0.98955011     0.78160
C1619       C  0.74730386  0.26289901  0.41754629     0.77210
Zn1620     Zn  0.76666733  0.31807695  0.26764344     1.49720
Zn1621     Zn  0.74850608  0.28296827  0.32800111     1.49360
Zn1622     Zn  0.75428227  0.24232098  0.27351310     1.49110
Zn1623     Zn  0.81949183  0.28159697  0.30528978     1.49480
O1624       O  0.77428805  0.28157895  0.29231862    -1.84060
O1625       O  0.72361996  0.34068470  0.27820214    -0.74690
O1626       O  0.73912755  0.23453621  0.34028286    -0.74510
O1627       O  0.74858508  0.24443012  0.22710458    -0.74030
O1628       O  0.70839354  0.30296137  0.31290493    -0.74710
O1629       O  0.76021955  0.29883303  0.22181322    -0.74310
O1630       O  0.71111820  0.23537964  0.29377355    -0.74890
O1631       O  0.82815397  0.23232075  0.30822905    -0.74280
O1632       O  0.77256413  0.31357269  0.35763026    -0.75040
O1633       O  0.78448400  0.20565940  0.28135694    -0.74430
O1634       O  0.82655468  0.31235621  0.34843523    -0.74900
O1635       O  0.84276673  0.30015506  0.26665790    -0.74810
O1636       O  0.80925340  0.34398354  0.27023023    -0.74590
C1637       C  0.70119320  0.32485983  0.29275888     0.77200
C1638       C  0.72024826  0.21920766  0.31792049     0.77690
C1639       C  0.75285523  0.26912590  0.20981060     0.76650
C1640       C  0.81294674  0.20536405  0.29576173     0.77020
C1641       C  0.80213620  0.32330334  0.36549714     0.78160
C1642       C  0.83351644  0.32826784  0.25684446     0.77210
C1643       C  0.80107389  0.29421082  0.43114067    -0.20240
C1644       C  0.76613673  0.29537489  0.42512339    -0.06810
C1645       C  0.75253655  0.32745875  0.41860753     0.14060
C1646       C  0.77561301  0.35312757  0.41106205    -0.20300
C1647       C  0.80639662  0.34153146  0.39904268    -0.06810
C1648       C  0.82170004  0.32005399  0.42023194     0.14050
C1649       C  0.85888018  0.31750898  0.42111844    -0.23640
H1650       H  0.81233425  0.27169883  0.43919744     0.15340
H1651       H  0.76617674  0.37619596  0.40204620     0.15360
C1652       C  0.71644198  0.33158790  0.40813198    -0.23590
H1653       H  0.86871631  0.32901992  0.44531563     0.05580
H1654       H  0.87018908  0.33173451  0.40151119     0.08800
H1655       H  0.86639212  0.29076393  0.41732549     0.08800
H1656       H  0.69891557  0.32256133  0.42617648     0.08790
H1657       H  0.71119634  0.31697265  0.38399216     0.08790
H1658       H  0.71084333  0.35844541  0.40501884     0.05560
C1659       C  0.76926305  0.23678104  0.12376565    -0.20240
C1660       C  0.74130961  0.24886462  0.10768343    -0.06810
C1661       C  0.71696808  0.26749150  0.12487979     0.14060
C1662       C  0.72153346  0.27425065  0.15882754    -0.20300
C1663       C  0.74972103  0.26255905  0.17484535    -0.06810
C1664       C  0.77367956  0.24324901  0.15772785     0.14050
C1665       C  0.80392727  0.23008249  0.17509351    -0.23640
H1666       H  0.78780098  0.22288097  0.10960340     0.15340
H1667       H  0.70321219  0.28848627  0.17285875     0.15360
C1668       C  0.68698626  0.28089693  0.10731981    -0.23590
H1669       H  0.82034992  0.21615208  0.15736847     0.05580
H1670       H  0.79609833  0.21252548  0.19360269     0.08800
H1671       H  0.81868926  0.25134829  0.18791912     0.08800
H1672       H  0.67204855  0.25959855  0.09473246     0.08790
H1673       H  0.69518291  0.29804660  0.08857540     0.08790
H1674       H  0.67068461  0.29525513  0.12485767     0.05560
C1675       C  0.88630788  0.26699796  0.48515583    -0.20240
C1676       C  0.86964279  0.23753583  0.49273053    -0.06810
C1677       C  0.88850391  0.20936851  0.00028521     0.14060
C1678       C  0.92360015  0.21128783  0.99897433    -0.20300
C1679       C  0.93997798  0.23975536  0.48780240    -0.06810
C1680       C  0.92083569  0.26823792  0.48130818     0.14050
C1681       C  0.93548424  0.30042968  0.46996895    -0.23640
H1682       H  0.87188486  0.28902421  0.48106919     0.15340
H1683       H  0.93812480  0.18954061  0.00427734     0.15360
C1684       C  0.87175100  0.17747677  0.00978526    -0.23590
H1685       H  0.92570049  0.30426682  0.44467225     0.05580
H1686       H  0.92845818  0.32210635  0.48717395     0.08800
H1687       H  0.96284815  0.30063767  0.46919186     0.08800
H1688       H  0.85537651  0.16656375  0.98897822     0.08790
H1689       H  0.85656805  0.18312870  0.03198593     0.08790
H1690       H  0.89020059  0.15819148  0.01569441     0.05560
C1691       C  0.58871978  0.20922615  0.98300127    -0.20240
C1692       C  0.60677672  0.23933398  0.99155913    -0.06810
C1693       C  0.58951872  0.26862806  0.50250389     0.14060
C1694       C  0.55483983  0.26674342  0.50559984    -0.20300
C1695       C  0.53657997  0.23671521  0.99698670    -0.06810
C1696       C  0.55375148  0.20769519  0.98479128     0.14050
C1697       C  0.53569803  0.17522513  0.97306299    -0.23640
H1698       H  0.60205237  0.18695722  0.97424204     0.15340
H1699       H  0.54190909  0.28897411  0.51492101     0.15360
C1700       C  0.60764747  0.30165002  0.51223802    -0.23590
H1701       H  0.55330703  0.15498956  0.96559948     0.05580
H1702       H  0.51980243  0.17925715  0.95106655     0.08800
H1703       H  0.52015412  0.16596530  0.99267863     0.08800
H1704       H  0.61999531  0.31097317  0.49040299     0.08790
H1705       H  0.62662747  0.29813754  0.53208366     0.08790
H1706       H  0.59040767  0.32145448  0.52171025     0.05560
C1707       C  0.75893824  0.43264089  0.00381778    -0.20240
C1708       C  0.73212387  0.44441429  0.48517719    -0.06810
C1709       C  0.70705429  0.42111193  0.47228347     0.14060
C1710       C  0.70912771  0.38730371  0.47893529    -0.20300
C1711       C  0.73674010  0.37479480  0.49585902    -0.06810
C1712       C  0.76186805  0.39808114  0.00896818     0.14050
C1713       C  0.79203147  0.38700683  0.02786829    -0.23640
H1714       H  0.77840132  0.45040722  0.01318235     0.15340
H1715       H  0.68932508  0.37017185  0.46919856     0.15360
C1716       C  0.67803641  0.43101645  0.45079820    -0.23590
H1717       H  0.80845598  0.40876502  0.03696589     0.05580
H1718       H  0.80697303  0.36979367  0.01152105     0.08800
H1719       H  0.78410584  0.37402254  0.04976990     0.08800
H1720       H  0.68701973  0.43848709  0.42675348     0.08790
H1721       H  0.66409339  0.45178138  0.46339031     0.08790
H1722       H  0.65999583  0.40972077  0.44492614     0.05560
C1723       C  0.70752161  0.09820557  0.99368881    -0.20240
C1724       C  0.73526249  0.11152013  0.97839672    -0.06810
C1725       C  0.76120639  0.08961737  0.96852972     0.14060
C1726       C  0.75898712  0.05539915  0.97535589    -0.20300
C1727       C  0.73155548  0.04258105  0.99174457    -0.06810
C1728       C  0.70539442  0.06450887  0.00077039     0.14050
C1729       C  0.67440993  0.05371282  0.01762670    -0.23640
H1730       H  0.68721129  0.11454224  0.00097914     0.15340
H1731       H  0.77926113  0.03875264  0.96887122     0.15360
C1732       C  0.79184889  0.10224839  0.95232141    -0.23590
H1733       H  0.65205680  0.06012131  0.00279343     0.05580
H1734       H  0.67346322  0.06712089  0.04269003     0.08800
H1735       H  0.67291093  0.02644651  0.52013396     0.08800
H1736       H  0.80459586  0.12235796  0.96889567     0.08790
H1737       H  0.78475292  0.11237676  0.42837032     0.08790
H1738       H  0.80987003  0.08178420  0.94709480     0.05560
C1739       C  0.84162440  0.40139195  0.22701137    -0.20240
C1740       C  0.80910225  0.39601610  0.21292555    -0.06810
C1741       C  0.80149173  0.36449185  0.19559781     0.14060
C1742       C  0.82315064  0.33769221  0.20060315    -0.20300
C1743       C  0.84680875  0.34164342  0.22704690    -0.06810
C1744       C  0.86112226  0.37389543  0.23363046     0.14050
C1745       C  0.89169582  0.37948847  0.25568193    -0.23640
H1746       H  0.85007989  0.42636133  0.23684810     0.15340
H1747       H  0.81594105  0.31245179  0.19071139     0.15360
C1748       C  0.77034530  0.35844911  0.17432031    -0.23590
H1749       H  0.90928185  0.39684640  0.24446085     0.05580
H1750       H  0.90426834  0.35529915  0.25915082     0.08800
H1751       H  0.88475568  0.39112853  0.28031261     0.08800
H1752       H  0.76973865  0.37658050  0.15478825     0.08790
H1753       H  0.74801377  0.36160186  0.18973903     0.08790
H1754       H  0.76937635  0.33256132  0.16184459     0.05560
C1755       C  0.70404737  0.13733626  0.27001405    -0.20240
C1756       C  0.73384453  0.12126055  0.27694239    -0.06810
C1757       C  0.75348363  0.13302077  0.30508542     0.14060
C1758       C  0.74553226  0.16355454  0.32269806    -0.20300
C1759       C  0.71796191  0.18203042  0.31287952    -0.06810
C1760       C  0.69532509  0.16696456  0.28835275     0.14050
C1761       C  0.66208764  0.18204531  0.28062957    -0.23640
H1762       H  0.68704342  0.12620305  0.25072394     0.15340
H1763       H  0.76251109  0.17432461  0.34215110     0.15360
C1764       C  0.78244936  0.11300658  0.31669837    -0.23590
H1765       H  0.64195439  0.16285698  0.28278928     0.05580
H1766       H  0.66160648  0.19007423  0.25494112     0.08800
H1767       H  0.65658172  0.20401035  0.29811067     0.08800
H1768       H  0.80095951  0.10984884  0.29687403     0.08790
H1769       H  0.77351561  0.08769156  0.32286341     0.08790
H1770       H  0.79489264  0.12560903  0.33926801     0.05560
C1771       C  0.71519907  0.00332190  0.38669953    -0.20240
C1772       C  0.74233620  0.48836869  0.37016476    -0.06810
C1773       C  0.76627869  0.47198925  0.38955078     0.14060
C1774       C  0.76230530  0.47122264  0.42405026    -0.20300
C1775       C  0.73493670  0.48572149  0.44038039    -0.06810
C1776       C  0.71077298  0.00164933  0.42098188     0.14050
C1777       C  0.67875948  0.01507573  0.43469059    -0.23640
H1778       H  0.69642681  0.01580910  0.37259485     0.15340
H1779       H  0.78068862  0.45863033  0.43853979     0.15360
C1780       C  0.79596903  0.45466453  0.37445578    -0.23590
H1781       H  0.65729803  0.00287440  0.42021464     0.05580
H1782       H  0.67800386  0.04276181  0.43271326     0.08800
H1783       H  0.67553368  0.00975125  0.46077547     0.08800
H1784       H  0.81222267  0.47332392  0.36322729     0.08790
H1785       H  0.78746126  0.43452590  0.35537008     0.08790
H1786       H  0.81137030  0.44255567  0.39324105     0.05560
C1787       C  0.71602214  0.98717296  0.09227615    -0.20240
C1788       C  0.74160516  0.00645984  0.10975853    -0.06810
C1789       C  0.76499816  0.52338794  0.09085081     0.14060
C1790       C  0.76145289  0.52139292  0.05588554    -0.20300
C1791       C  0.73513794  0.00316814  0.03842213    -0.06810
C1792       C  0.71211140  0.98564112  0.05739555     0.14050
C1793       C  0.68203447  0.96633263  0.04255797    -0.23640
H1794       H  0.69799903  0.97370380  0.10607467     0.15340
H1795       H  0.77939546  0.53472683  0.04189494     0.15360
C1796       C  0.79429343  0.54314652  0.10700220    -0.23590
H1797       H  0.68443253  0.93910520  0.04636620     0.05580
H1798       H  0.67845805  0.96931129  0.01592620     0.08800
H1799       H  0.65925137  0.97582488  0.05480694     0.08800
H1800       H  0.80952529  0.52653560  0.12195439     0.08790
H1801       H  0.78540944  0.56484413  0.12307828     0.08290
H1802       H  0.81072440  0.55345481  0.08840421     0.05560
C1803       C  0.88993873  0.18506930  0.29867772    -0.20240
C1804       C  0.89072298  0.19075462  0.26461840    -0.06810
C1805       C  0.86454749  0.17761142  0.24324035     0.14060
C1806       C  0.83570022  0.16564499  0.25775752    -0.20300
C1807       C  0.83172595  0.17420595  0.29176611    -0.06810
C1808       C  0.86041591  0.17433779  0.31216423     0.14050
C1809       C  0.85810605  0.17121848  0.34883742    -0.23640
H1810       H  0.91137035  0.19121510  0.31507383     0.15340
H1811       H  0.81392317  0.15879972  0.24206535     0.15360
C1812       C  0.86682976  0.17660284  0.20614582    -0.23590
H1813       H  0.88268879  0.17589475  0.36182813     0.05580
H1814       H  0.84952303  0.14530782  0.35322129     0.08800
H1815       H  0.84024474  0.18963557  0.35977164     0.08800
H1816       H  0.88882985  0.16190849  0.19812262     0.08790
H1817       H  0.86931841  0.20261524  0.19824108     0.08790
H1818       H  0.84427911  0.16449493  0.19349262     0.05560
C1819       C  0.62917892  0.30107448  0.23785005    -0.20240
C1820       C  0.61156665  0.28363474  0.26079773    -0.06810
C1821       C  0.61951872  0.28941998  0.29506467     0.14060
C1822       C  0.64448837  0.31279234  0.30545112    -0.20300
C1823       C  0.66596284  0.32548817  0.28249296    -0.06810
C1824       C  0.65676465  0.32184535  0.24830307     0.14050
C1825       C  0.67617453  0.33900814  0.22281164    -0.23640
H1826       H  0.62136213  0.29843447  0.21190254     0.15340
H1827       H  0.65109668  0.31637254  0.33170199     0.15360
C1828       C  0.60317103  0.26942435  0.32078482    -0.23590
H1829       H  0.66409958  0.33500666  0.19774753     0.05580
H1830       H  0.70158905  0.32885584  0.22112983     0.08800
H1831       H  0.67774234  0.36659994  0.22967364     0.08800
H1832       H  0.60534775  0.24200001  0.31378797     0.08790
H1833       H  0.57656714  0.27567604  0.32303467     0.08790
H1834       H  0.61512778  0.27477161  0.34577097     0.05560
C1835       C  0.50461866  0.26452898  0.43227571    -0.20240
C1836       C  0.98440455  0.23832616  0.44309590    -0.06810
C1837       C  0.97082809  0.21389124  0.41865418     0.14060
C1838       C  0.97765010  0.21636108  0.38499118    -0.20300
C1839       C  0.99655669  0.24325830  0.37406143    -0.06810
C1840       C  0.51025585  0.26770908  0.39824591     0.14050
C1841       C  0.53131429  0.29686736  0.38855741    -0.23640
H1842       H  0.51519163  0.28340647  0.45049177     0.15340
H1843       H  0.96693018  0.19752853  0.36673651     0.15360
C1844       C  0.94908291  0.18473756  0.42740682    -0.23590
H1845       H  0.54058660  0.31313848  0.41057486     0.05580
H1846       H  0.51648714  0.31282332  0.37259329     0.08800
H1847       H  0.55324599  0.28718586  0.37509651     0.08800
H1848       H  0.92432561  0.19404228  0.43472914     0.08790
H1849       H  0.96090469  0.17153480  0.44770039     0.08790
H1850       H  0.94471270  0.16584640  0.40594794     0.05560
C1851       C  0.48364218  0.26476066  0.09563077    -0.20240
C1852       C  0.49023375  0.23507425  0.11112661    -0.06810
C1853       C  0.99613896  0.20530253  0.09102689     0.14060
C1854       C  0.99683925  0.20621707  0.05629102    -0.20300
C1855       C  0.49238390  0.23621937  0.04064623    -0.06810
C1856       C  0.48531053  0.26593825  0.06090191     0.14050
C1857       C  0.48085275  0.29970762  0.04721206    -0.23640
H1858       H  0.47883746  0.28771106  0.11089166     0.15340
H1859       H  0.00180428  0.18327263  0.04142097     0.15360
C1860       C  0.00146214  0.17228899  0.10618683    -0.23590
H1861       H  0.45532155  0.30870896  0.05213568     0.05580
H1862       H  0.48470009  0.29883101  0.02032875     0.08800
H1863       H  0.49925951  0.31822393  0.05937560     0.08800
H1864       H  0.97964911  0.16616896  0.12109079     0.08790
H1865       H  0.02426307  0.17403276  0.12239642     0.08790
H1866       H  0.00454177  0.15114700  0.08697244     0.05560
C1867       C  0.59941211  0.46723044  0.20483078    -0.20240
C1868       C  0.61813576  0.97833394  0.23382181    -0.06810
C1869       C  0.60022666  0.99137026  0.26178605     0.14060
C1870       C  0.56580881  0.99633788  0.25880106    -0.20300
C1871       C  0.54707592  0.98627165  0.22987716    -0.06810
C1872       C  0.56418524  0.47086544  0.20261895     0.14050
C1873       C  0.54568674  0.45943834  0.17078457    -0.23640
H1874       H  0.61247223  0.45700721  0.18335345     0.15340
H1875       H  0.55321388  0.00855656  0.27964022     0.15360
C1876       C  0.61675850  0.00028633  0.29543767    -0.23590
H1877       H  0.56279138  0.44894953  0.15167427     0.05580
H1878       H  0.53258100  0.48083930  0.16067150     0.08800
H1879       H  0.52723366  0.43938832  0.17535274     0.08800
H1880       H  0.63218958  0.02370614  0.29523874     0.08790
H1881       H  0.63226161  0.97906555  0.30268732     0.08790
H1882       H  0.59816731  0.00504063  0.31501267     0.05560
C1883       C  0.89672415  0.01685032  0.21250544    -0.20240
C1884       C  0.87958199  0.51096319  0.24168145    -0.06810
C1885       C  0.89817876  0.49665070  0.26750402     0.14060
C1886       C  0.93166617  0.48794069  0.26292169    -0.20300
C1887       C  0.94859996  0.49307039  0.23377110    -0.06810
C1888       C  0.93053765  0.00780466  0.20808218     0.14050
C1889       C  0.94532215  0.01249479  0.17493016    -0.23640
H1890       H  0.88326379  0.02725594  0.19221317     0.15340
H1891       H  0.94454192  0.47592036  0.28238442     0.15360
C1892       C  0.88327689  0.48917253  0.30010834    -0.23590
H1893       H  0.92962529  0.99878078  0.15504523     0.05580
H1894       H  0.97084311  0.00265716  0.17286815     0.08800
H1895       H  0.94611303  0.03976367  0.17068538     0.08800
H1896       H  0.86327255  0.46951076  0.29592023     0.08790
H1897       H  0.87338532  0.51262268  0.31256956     0.08790
H1898       H  0.90194792  0.47935734  0.31749416     0.05560
C1899       C  0.96934914  0.42014733  0.20547754    -0.20240
C1900       C  0.98451269  0.44061686  0.23203421    -0.06810
C1901       C  0.49413533  0.42457480  0.26095062     0.14060
C1902       C  0.48909174  0.38954006  0.26191502    -0.20300
C1903       C  0.97509151  0.36883775  0.23509519    -0.06810
C1904       C  0.96494482  0.38469341  0.20636344     0.14050
C1905       C  0.94936003  0.36467110  0.17663744    -0.23640
H1906       H  0.96066717  0.43216053  0.18377830     0.15340
H1907       H  0.49675180  0.37804213  0.28424352     0.15360
C1908       C  0.50978120  0.44320635  0.29151375    -0.23590
H1909       H  0.94305468  0.38100191  0.15639304     0.05580
H1910       H  0.92596494  0.35212861  0.18374916     0.08800
H1911       H  0.96694576  0.34538550  0.16681773     0.08800
H1912       H  0.49471358  0.46458774  0.30068685     0.08790
H1913       H  0.53521539  0.45153852  0.28639745     0.08790
H1914       H  0.51233796  0.42674773  0.31236440     0.05560
C1915       C  0.52181155  0.05299954  0.20040247    -0.20240
C1916       C  0.51049353  0.03709117  0.22820908    -0.06810
C1917       C  0.00425077  0.05791927  0.25728817     0.14060
C1918       C  0.00890688  0.09300789  0.25759957    -0.20300
C1919       C  0.51995981  0.10918229  0.22989624    -0.06810
C1920       C  0.52622556  0.08854358  0.20067568     0.14050
C1921       C  0.53725683  0.10357916  0.16966277    -0.23640
H1922       H  0.52757596  0.03745682  0.17825836     0.15340
H1923       H  0.00390172  0.10787024  0.28046445     0.15360
C1924       C  0.99391864  0.04446994  0.28929002    -0.23590
H1925       H  0.54090948  0.08386322  0.14916393     0.05580
H1926       H  0.56129600  0.11755606  0.17463159     0.08800
H1927       H  0.51805778  0.12097976  0.16120378     0.08800
H1928       H  0.99254240  0.01682989  0.28787693     0.08790
H1929       H  0.96906769  0.05423125  0.29600578     0.08790
H1930       H  0.01232199  0.05281882  0.30938697     0.05560
C1931       C  0.51177110  0.99896904  0.72789639     0.00630
C1932       C  0.98343457  0.47868506  0.73056532     0.00630
Zn1933     Zn  0.99284401  0.20642162  0.77118929     1.49720
Zn1934     Zn  0.53206667  0.21937564  0.71062653     1.49360
Zn1935     Zn  0.96013325  0.25613797  0.71463995     1.49110
Zn1936     Zn  0.50925786  0.27632943  0.77298848     1.49480
O1937       O  0.99838182  0.23992608  0.74007874    -1.84060
O1938       O  0.00754732  0.16129376  0.75815132    -0.74690
O1939       O  0.51923318  0.22785057  0.66248135    -0.74510
O1940       O  0.92003558  0.22933472  0.73169508    -0.74030
O1941       O  0.53287028  0.16582060  0.71125947    -0.74710
O1942       O  0.94689216  0.19916424  0.76802446    -0.74310
O1943       O  0.96672119  0.24514564  0.66475380    -0.74890
O1944       O  0.49473518  0.32075163  0.76010580    -0.74280
O1945       O  0.57586106  0.24445671  0.72701428    -0.75040
O1946       O  0.95785700  0.30965519  0.71915453    -0.74430
O1947       O  0.55572660  0.27912087  0.76773400    -0.74900
O1948       O  0.50043731  0.27135140  0.82283220    -0.74810
O1949       O  0.00238932  0.21614359  0.82004779    -0.74590
C1950       C  0.52093272  0.14736409  0.73289857     0.77200
C1951       C  0.49209751  0.23603086  0.64811532     0.77690
C1952       C  0.92056687  0.20728004  0.75334817     0.76650
C1953       C  0.97524109  0.33110271  0.73805181     0.77020
C1954       C  0.57958030  0.26761230  0.75089458     0.78160
C1955       C  0.00070878  0.24404165  0.83731001     0.77210
Zn1956     Zn  0.78191596  0.48475611  0.76903515     1.49720
Zn1957     Zn  0.77324611  0.03429613  0.71573679     1.49360
Zn1958     Zn  0.72612129  0.46653571  0.70701035     1.49110
Zn1959     Zn  0.71531410  0.01650697  0.76968002     1.49480
O1960       O  0.74823516  0.50057070  0.73918887    -1.84060
O1961       O  0.82687650  0.50810730  0.76876672    -0.74690
O1962       O  0.76028326  0.02918002  0.66520174    -0.74510
O1963       O  0.75719372  0.42551669  0.70503476    -0.74030
O1964       O  0.82502426  0.02573738  0.71870983    -0.74710
O1965       O  0.79278692  0.44206559  0.74670048    -0.74310
O1966       O  0.72943904  0.48202861  0.66046809    -0.74890
O1967       O  0.66969125  0.00309792  0.75373124    -0.74280
O1968       O  0.76047862  0.08022368  0.74007022    -0.75040
O1969       O  0.67384443  0.46076362  0.71533946    -0.74430
O1970       O  0.71916255  0.06499078  0.77248067    -0.74900
O1971       O  0.72097839  0.00439027  0.81758696    -0.74810
O1972       O  0.77000381  0.48085123  0.81747437    -0.74590
C1973       C  0.84209270  0.51594725  0.74325217     0.77200
C1974       C  0.74388700  0.00623193  0.64714362     0.77690
C1975       C  0.78440338  0.42216433  0.72169956     0.76650
C1976       C  0.65585167  0.98026028  0.73411915     0.77020
C1977       C  0.73809879  0.08714940  0.76158590     0.78160
C1978       C  0.74459118  0.49097743  0.83319852     0.77210
C1979       C  0.73166239  0.00691686  0.50125574     0.00630
C1980       C  0.73173781  0.48047164  0.97695361     0.00630
C1981       C  0.50023040  0.23629194  0.50424604     0.00630
C1982       C  0.97612772  0.23788458  0.97954827     0.00630
Zn1983     Zn  0.76711165  0.21353642  0.95731801     1.49720
Zn1984     Zn  0.71040118  0.21341229  0.51060199     1.49360
Zn1985     Zn  0.76962394  0.27266994  0.51301439     1.49110
Zn1986     Zn  0.70622316  0.27147373  0.96692834     1.49480
O1987       O  0.73841095  0.24232086  0.48691285    -1.84060
O1988       O  0.75382654  0.16336988  0.95620121    -0.74690
O1989       O  0.72034362  0.22457329  0.55744173    -0.74510
O1990       O  0.81800929  0.26165002  0.50733166    -0.74030
O1991       O  0.72137200  0.16586956  0.49981362    -0.74710
O1992       O  0.81637022  0.21601589  0.97217983    -0.74310
O1993       O  0.76012999  0.26503349  0.55831470    -0.74890
O1994       O  0.71471191  0.31964330  0.98230204    -0.74280
O1995       O  0.66036533  0.21794223  0.50394503    -0.75040
O1996       O  0.76358735  0.32288312  0.50837766    -0.74430
O1997       O  0.65789982  0.26198186  0.97399177    -0.74900
O1998       O  0.71597088  0.26160611  0.92012747    -0.74810
O1999       O  0.76284694  0.23524114  0.91383947    -0.74590
C2000       C  0.73713710  0.14883552  0.47767218     0.77200
C2001       C  0.74051924  0.24577813  0.57248972     0.77690
C2002       C  0.83268869  0.23773145  0.99136168     0.76650
C2003       C  0.73851544  0.33726539  0.99632659     0.77020
C2004       C  0.64354556  0.23961250  0.48955372     0.78160
C2005       C  0.74730818  0.26291282  0.91754906     0.77210
Zn2006     Zn  0.76664141  0.31802448  0.76765752     1.49720
Zn2007     Zn  0.74850879  0.28291928  0.82802467     1.49360
Zn2008     Zn  0.75426837  0.24226691  0.77353726     1.49110
Zn2009     Zn  0.81948344  0.28155919  0.80528690     1.49480
O2010       O  0.77427545  0.28152958  0.79233143    -1.84060
O2011       O  0.72360779  0.34064136  0.77824523    -0.74690
O2012       O  0.73914647  0.23448897  0.84031877    -0.74510
O2013       O  0.74854729  0.24436894  0.72712796    -0.74030
O2014       O  0.70838874  0.30290692  0.81293962    -0.74710
O2015       O  0.76016433  0.29877464  0.72183237    -0.74310
O2016       O  0.71111604  0.23532183  0.79382053    -0.74890
O2017       O  0.82815190  0.23228784  0.80824108    -0.74280
O2018       O  0.77257405  0.31353104  0.85763683    -0.75040
O2019       O  0.78448436  0.20561446  0.78137513    -0.74430
O2020       O  0.82655988  0.31233887  0.84841891    -0.74900
O2021       O  0.84273970  0.30009938  0.76663609    -0.74810
O2022       O  0.80922789  0.34392840  0.77021269    -0.74590
C2023       C  0.70118421  0.32481033  0.79279991     0.77200
C2024       C  0.72025942  0.21915519  0.81796668     0.77690
C2025       C  0.75280209  0.26906609  0.70983208     0.76650
C2026       C  0.81294927  0.20532712  0.79577730     0.77020
C2027       C  0.80214401  0.32327974  0.86548797     0.78160
C2028       C  0.83348327  0.32820794  0.75681803     0.77210
C2029       C  0.80107919  0.29422089  0.93114349    -0.20240
C2030       C  0.76614220  0.29538857  0.92512767    -0.06810
C2031       C  0.75254691  0.32747298  0.91860455     0.14060
C2032       C  0.77562686  0.35313166  0.91104085    -0.20300
C2033       C  0.80640833  0.34152488  0.89902511    -0.06810
C2034       C  0.82170888  0.32005610  0.92022497     0.14050
C2035       C  0.85888816  0.31750213  0.92110737    -0.23640
H2036       H  0.81233647  0.27170901  0.93920338     0.15340
H2037       H  0.76619346  0.37619629  0.90201416     0.15360
C2038       C  0.71645256  0.33160617  0.90813153    -0.23590
H2039       H  0.86872983  0.32903391  0.94529429     0.05580
H2040       H  0.87019703  0.33170388  0.90148315     0.08800
H2041       H  0.86639436  0.29075343  0.91733881     0.08800
H2042       H  0.69892629  0.32257440  0.92617328     0.08790
H2043       H  0.71120597  0.31699806  0.88398821     0.08790
H2044       H  0.71085515  0.35846569  0.90502737     0.05560
C2045       C  0.76923370  0.23676114  0.62377986    -0.20240
C2046       C  0.74129083  0.24886094  0.60769356    -0.06810
C2047       C  0.71694061  0.26747475  0.62489108     0.14060
C2048       C  0.72148822  0.27420678  0.65884440    -0.20300
C2049       C  0.74966633  0.26249973  0.67486619    -0.06810
C2050       C  0.77363232  0.24320120  0.65774683     0.14050
C2051       C  0.80387157  0.23002057  0.67511546    -0.23640
H2052       H  0.78777677  0.22286849  0.60961784     0.15340
H2053       H  0.70316360  0.28843782  0.67287624     0.15360
C2054       C  0.68696894  0.28089537  0.60732736    -0.23590
H2055       H  0.82030282  0.21610391  0.65738898     0.05580
H2056       H  0.79603263  0.21244724  0.69360590     0.08800
H2057       H  0.81862834  0.25127760  0.68796360     0.08800
H2058       H  0.67203554  0.25960602  0.59471780     0.08790
H2059       H  0.69517735  0.29806016  0.58860105     0.08790
H2060       H  0.67065924  0.29524138  0.62486645     0.05560
C2061       C  0.88630241  0.26703680  0.98516777    -0.20240
C2062       C  0.86964320  0.23756739  0.99273315    -0.06810
C2063       C  0.88849732  0.20933295  0.50028337     0.14060
C2064       C  0.92359384  0.21124257  0.49896751    -0.20300
C2065       C  0.93997808  0.23980584  0.98781317    -0.06810
C2066       C  0.92083071  0.26828594  0.98132424     0.14050
C2067       C  0.93547576  0.30048337  0.96999417    -0.23640
H2068       H  0.87187492  0.28906127  0.98108447     0.15340
H2069       H  0.93811373  0.18949263  0.50427226     0.15360
C2070       C  0.87173739  0.17744746  0.50978987    -0.23590
H2071       H  0.92569557  0.30432427  0.94469727     0.05580
H2072       H  0.92844441  0.32215526  0.98720254     0.08800
H2073       H  0.96284008  0.30069534  0.96922007     0.08800
H2074       H  0.85535697  0.16653687  0.48898644     0.08790
H2075       H  0.85655933  0.18310663  0.53199267     0.08790
H2076       H  0.89018245  0.15815757  0.51569817     0.05560
C2077       C  0.58872097  0.20923627  0.48300942    -0.20240
C2078       C  0.60677711  0.23934595  0.49156050    -0.06810
C2079       C  0.58951976  0.26861416  0.00251053     0.14060
C2080       C  0.55484086  0.26673026  0.00560514    -0.20300
C2081       C  0.53658002  0.23672600  0.49698916    -0.06810
C2082       C  0.55375279  0.20770464  0.48479940     0.14050
C2083       C  0.53570094  0.17523223  0.47307635    -0.23640
H2084       H  0.60205424  0.18696592  0.47425543     0.15340
H2085       H  0.54191076  0.28895933  0.01493214     0.15360
C2086       C  0.60765047  0.30163285  0.01225464    -0.23590
H2087       H  0.55331077  0.15499715  0.46561370     0.05580
H2088       H  0.51980306  0.17926042  0.45108048     0.08800
H2089       H  0.52016004  0.16597363  0.49269463     0.08800
H2090       H  0.62000046  0.31096177  0.99042343     0.08790
H2091       H  0.62662913  0.29811305  0.03209958     0.08790
H2092       H  0.59041164  0.32143608  0.02173163     0.05560
C2093       C  0.75895482  0.43264211  0.50381099    -0.20240
C2094       C  0.73210950  0.44441434  0.98518227    -0.06810
C2095       C  0.70703793  0.42111394  0.97228878     0.14060
C2096       C  0.70910893  0.38730547  0.97894025    -0.20300
C2097       C  0.73672064  0.37479511  0.99586349    -0.06810
C2098       C  0.76188721  0.39808225  0.50896131     0.14050
C2099       C  0.79205261  0.38700914  0.52785893    -0.23640
H2100       H  0.77841684  0.45040976  0.51317532     0.15340
H2101       H  0.68930621  0.37017430  0.96920223     0.15360
C2102       C  0.67802141  0.43102049  0.95080285    -0.23590
H2103       H  0.80847820  0.40876771  0.53695302     0.05580
H2104       H  0.80699183  0.36979427  0.51151103     0.08800
H2105       H  0.78412952  0.37402676  0.54976259     0.08800
H2106       H  0.68700569  0.43848784  0.92675735     0.08790
H2107       H  0.66408097  0.45178827  0.96339345     0.08790
H2108       H  0.65997828  0.40972672  0.94493253     0.05560
C2109       C  0.70752195  0.09820423  0.49370287    -0.20240
C2110       C  0.73525961  0.11152059  0.47840720    -0.06810
C2111       C  0.76120374  0.08961989  0.46853603     0.14060
C2112       C  0.75898774  0.05540154  0.47536103    -0.20300
C2113       C  0.73155859  0.04258081  0.49175120    -0.06810
C2114       C  0.70539731  0.06450660  0.50078178     0.14050
C2115       C  0.67441510  0.05370721  0.51763984    -0.23640
H2116       H  0.68721192  0.11453973  0.50099683     0.15340
H2117       H  0.77926216  0.03875663  0.46887339     0.15360
C2118       C  0.79184336  0.10225300  0.45232424    -0.23590
H2119       H  0.65206022  0.06011660  0.50280964     0.05580
H2120       H  0.67347037  0.06711237  0.54270465     0.08800
H2121       H  0.67290436  0.02645276  0.02012400     0.08800
H2122       H  0.80459084  0.12236319  0.46889727     0.08790
H2123       H  0.78476193  0.11237260  0.92836676     0.08790
H2124       H  0.80986540  0.08179010  0.44709541     0.05560
C2125       C  0.84159032  0.40132458  0.72697021    -0.20240
C2126       C  0.80906168  0.39595550  0.71289959    -0.06810
C2127       C  0.80143501  0.36443083  0.69558006     0.14060
C2128       C  0.82308892  0.33762572  0.70057911    -0.20300
C2129       C  0.84676139  0.34157502  0.72701033    -0.06810
C2130       C  0.86108522  0.37382386  0.73358229     0.14050
C2131       C  0.89166958  0.37941156  0.75561905    -0.23640
H2132       H  0.85005448  0.42629306  0.73680149     0.15340
H2133       H  0.81586796  0.31238573  0.69069520     0.15360
C2134       C  0.77027645  0.35839377  0.67431995    -0.23590
H2135       H  0.90925131  0.39676710  0.74438946     0.05580
H2136       H  0.90424093  0.35522011  0.75908072     0.08800
H2137       H  0.88474301  0.39105229  0.78025381     0.08800
H2138       H  0.76966500  0.37652023  0.65478352     0.08790
H2139       H  0.74795451  0.36155870  0.68975049     0.08790
H2140       H  0.76929361  0.33250369  0.66185002     0.05560
C2141       C  0.70404259  0.13728737  0.77006963    -0.20240
C2142       C  0.73385000  0.12121879  0.77697333    -0.06810
C2143       C  0.75350399  0.13297725  0.80510674     0.14060
C2144       C  0.74555645  0.16350646  0.82273026    -0.20300
C2145       C  0.71797516  0.18197795  0.81293209    -0.06810
C2146       C  0.69532452  0.16690954  0.78842033     0.14050
C2147       C  0.66207766  0.18198390  0.78072412    -0.23640
H2148       H  0.68702827  0.12615353  0.75078907     0.15340
H2149       H  0.76254552  0.17427759  0.84217380     0.15360
C2150       C  0.78248022  0.11296519  0.81669882    -0.23590
H2151       H  0.64195148  0.16279128  0.78289804     0.05580
H2152       H  0.66157373  0.19001493  0.75503640     0.08800
H2153       H  0.65658127  0.20394678  0.79821169     0.08800
H2154       H  0.80097882  0.10981395  0.79686310     0.08790
H2155       H  0.77355508  0.08764728  0.82286409     0.08790
H2156       H  0.79493424  0.12556530  0.83926371     0.05560
C2157       C  0.71520100  0.00330199  0.88669394    -0.20240
C2158       C  0.74233625  0.48833825  0.87016314    -0.06810
C2159       C  0.76627501  0.47195999  0.88955411     0.14060
C2160       C  0.76230062  0.47120462  0.92405453    -0.20300
C2161       C  0.73493384  0.48571303  0.94038041    -0.06810
C2162       C  0.71077327  0.00163974  0.92097700     0.14050
C2163       C  0.67876097  0.01507426  0.93468103    -0.23640
H2164       H  0.69643144  0.01578887  0.87258556     0.15340
H2165       H  0.78068087  0.45861260  0.93854802     0.15360
C2166       C  0.79596155  0.45462457  0.87446330    -0.23590
H2167       H  0.65729863  0.00287393  0.92020567     0.05580
H2168       H  0.67801020  0.04275976  0.93269846     0.08800
H2169       H  0.67553194  0.00975515  0.96076682     0.08800
H2170       H  0.81221912  0.47327677  0.86322944     0.08790
H2171       H  0.78744955  0.43448296  0.85538248     0.08790
H2172       H  0.81135989  0.44251768  0.89325221     0.05560
C2173       C  0.71603050  0.98716215  0.59227548    -0.20240
C2174       C  0.74161096  0.00645098  0.60976010    -0.06810
C2175       C  0.76500262  0.52338350  0.59085441     0.14060
C2176       C  0.76145826  0.52139027  0.55588904    -0.20300
C2177       C  0.73514585  0.00316319  0.53842374    -0.06810
C2178       C  0.71212081  0.98563218  0.55739505     0.14050
C2179       C  0.68204596  0.96632164  0.54255533    -0.23640
H2180       H  0.69800829  0.97368971  0.60607209     0.15340
H2181       H  0.77939918  0.53472794  0.54189984     0.15360
C2182       C  0.79429443  0.54314585  0.60700802    -0.23590
H2183       H  0.68444704  0.93909392  0.54636076     0.05580
H2184       H  0.67846910  0.96930303  0.51592409     0.08800
H2185       H  0.65926171  0.97580992  0.55480497     0.08800
H2186       H  0.80952920  0.52653611  0.62195876     0.08790
H2187       H  0.78540641  0.56484016  0.62308596     0.08290
H2188       H  0.81072370  0.55345913  0.58841140     0.05560
C2189       C  0.88994635  0.18505971  0.79868898    -0.20240
C2190       C  0.89072528  0.19074596  0.76462948    -0.06810
C2191       C  0.86455172  0.17759450  0.74325326     0.14060
C2192       C  0.83571079  0.16561579  0.75777252    -0.20300
C2193       C  0.83173678  0.17417446  0.79178147    -0.06810
C2194       C  0.86042901  0.17431615  0.81217746     0.14050
C2195       C  0.85812416  0.17119626  0.84885107    -0.23640
H2196       H  0.91137759  0.19121260  0.81508365     0.15340
H2197       H  0.81393449  0.15876254  0.74208203     0.15360
C2198       C  0.86682894  0.17659020  0.70615849    -0.23590
H2199       H  0.88270642  0.17588283  0.86184009     0.05580
H2200       H  0.84955224  0.14528239  0.85323621     0.08800
H2201       H  0.84025633  0.18960597  0.85978617     0.08800
H2202       H  0.88883409  0.16190589  0.69813151     0.08790
H2203       H  0.86930520  0.20260445  0.69825562     0.08790
H2204       H  0.84428139  0.16447395  0.69350702     0.05560
C2205       C  0.62916966  0.30105420  0.73787750    -0.20240
C2206       C  0.61155795  0.28359708  0.76081214    -0.06810
C2207       C  0.61951049  0.28935531  0.79508064     0.14060
C2208       C  0.64448094  0.31272042  0.80548271    -0.20300
C2209       C  0.66595416  0.32543579  0.78253392    -0.06810
C2210       C  0.65675626  0.32181720  0.74834316     0.14050
C2211       C  0.67616718  0.33899548  0.72286253    -0.23640
H2212       H  0.62135148  0.29843371  0.71193000     0.15340
H2213       H  0.65108886  0.31628153  0.83173463     0.15360
C2214       C  0.60316023  0.26933956  0.82078411    -0.23590
H2215       H  0.66408905  0.33501455  0.69779841     0.05580
H2216       H  0.70157840  0.32883709  0.72116915     0.08800
H2217       H  0.67774207  0.36658366  0.72974325     0.08800
H2218       H  0.60534000  0.24191898  0.81376982     0.08790
H2219       H  0.57655494  0.27558570  0.82303348     0.08790
H2220       H  0.61511284  0.27467156  0.84577403     0.05560
C2221       C  0.50462158  0.26452284  0.93227387    -0.20240
C2222       C  0.98439616  0.23838069  0.94309928    -0.06810
C2223       C  0.97082366  0.21393699  0.91866355     0.14060
C2224       C  0.97764316  0.21639920  0.88499914    -0.20300
C2225       C  0.99654148  0.24329750  0.87406123    -0.06810
C2226       C  0.51025561  0.26770483  0.89824372     0.14050
C2227       C  0.53131506  0.29686217  0.88855457    -0.23640
H2228       H  0.51519861  0.28339777  0.95049018     0.15340
H2229       H  0.96692798  0.19755886  0.86674948     0.15360
C2230       C  0.94908605  0.18478081  0.92742360    -0.23590
H2231       H  0.54059071  0.31313138  0.91057197     0.05580
H2232       H  0.51648724  0.31282012  0.87259302     0.08800
H2233       H  0.55324456  0.28718019  0.87509029     0.08800
H2234       H  0.92432614  0.19408108  0.93474235     0.08790
H2235       H  0.96091138  0.17158648  0.94772100     0.08790
H2236       H  0.94472053  0.16588318  0.90596929     0.05560
C2237       C  0.48364400  0.26477493  0.59563165    -0.20240
C2238       C  0.49022163  0.23508484  0.61112632    -0.06810
C2239       C  0.99614392  0.20526272  0.59103425     0.14060
C2240       C  0.99684598  0.20616735  0.55629747    -0.20300
C2241       C  0.49238111  0.23623141  0.54064742    -0.06810
C2242       C  0.48531516  0.26595248  0.56090304     0.14050
C2243       C  0.48086480  0.29972277  0.54721282    -0.23640
H2244       H  0.47884642  0.28772686  0.61089308     0.15340
H2245       H  0.00182496  0.18322218  0.54143425     0.15360
C2246       C  0.00148333  0.17225735  0.60620468    -0.23590
H2247       H  0.45533716  0.30873193  0.55214089     0.05580
H2248       H  0.48470609  0.29884379  0.52032825     0.08800
H2249       H  0.49927839  0.31823413  0.55937273     0.08800
H2250       H  0.97967317  0.16613118  0.62111000     0.08790
H2251       H  0.02428389  0.17401682  0.62241472     0.08790
H2252       H  0.00457316  0.15111184  0.58699635     0.05560
C2253       C  0.59941223  0.46722414  0.70482251    -0.20240
C2254       C  0.61813483  0.97832443  0.73381374    -0.06810
C2255       C  0.60022723  0.99136459  0.76177753     0.14060
C2256       C  0.56581073  0.99633735  0.75879155    -0.20300
C2257       C  0.54707787  0.98627254  0.72986757    -0.06810
C2258       C  0.56418653  0.47086447  0.70260999     0.14050
C2259       C  0.54568766  0.45944085  0.67077486    -0.23640
H2260       H  0.61247149  0.45699877  0.68334547     0.15340
H2261       H  0.55321670  0.00855708  0.77963060     0.15360
C2262       C  0.61675865  0.00027914  0.79542973    -0.23590
H2263       H  0.56279147  0.44894997  0.65166478     0.05580
H2264       H  0.53258571  0.48084415  0.66066202     0.08800
H2265       H  0.52723153  0.43939333  0.67534170     0.08800
H2266       H  0.63219347  0.02369651  0.79523067     0.08790
H2267       H  0.63225771  0.97905601  0.80268084     0.08790
H2268       H  0.59816733  0.00503733  0.81500392     0.05560
C2269       C  0.89672118  0.01682347  0.71250255    -0.20240
C2270       C  0.87958617  0.51094177  0.74168330    -0.06810
C2271       C  0.89819212  0.49665126  0.76751286     0.14060
C2272       C  0.93168001  0.48794641  0.76292882    -0.20300
C2273       C  0.94860570  0.49306489  0.73377146    -0.06810
C2274       C  0.93053641  0.00778625  0.70807912     0.14050
C2275       C  0.94531731  0.01247208  0.67492456    -0.23640
H2276       H  0.88325465  0.02721614  0.69220673     0.15340
H2277       H  0.94456224  0.47593846  0.78239566     0.15360
C2278       C  0.88330118  0.48919462  0.80012827    -0.23590
H2279       H  0.92962473  0.99874636  0.65504350     0.05580
H2280       H  0.97084265  0.00264515  0.67286529     0.08800
H2281       H  0.94609714  0.03973918  0.67067165     0.08800
H2282       H  0.86331151  0.46951507  0.79596107     0.08790
H2283       H  0.87339343  0.51264752  0.81256855     0.08790
H2284       H  0.90198313  0.47941144  0.81752310     0.05560
C2285       C  0.96935365  0.42014567  0.70546562    -0.20240
C2286       C  0.98451660  0.44061165  0.73202548    -0.06810
C2287       C  0.49414209  0.42457321  0.76094546     0.14060
C2288       C  0.48909462  0.38953918  0.76191079    -0.20300
C2289       C  0.97509144  0.36883252  0.73507760    -0.06810
C2290       C  0.96494923  0.38469119  0.70634657     0.14050
C2291       C  0.94936933  0.36467121  0.67661676    -0.23640
H2292       H  0.96067333  0.43216182  0.68376757     0.15340
H2293       H  0.49675264  0.37804103  0.78423982     0.15360
C2294       C  0.50979411  0.44320271  0.79150663    -0.23590
H2295       H  0.94306819  0.38100386  0.65637268     0.05580
H2296       H  0.92597265  0.35212805  0.68372327     0.08800
H2297       H  0.96695646  0.34538592  0.66679926     0.08800
H2298       H  0.49473117  0.46458648  0.80068197     0.08790
H2299       H  0.53522894  0.45153038  0.78638685     0.08790
H2300       H  0.51235105  0.42674395  0.81235715     0.05560
C2301       C  0.52180228  0.05300008  0.70039239    -0.20240
C2302       C  0.51049245  0.03709064  0.72820142    -0.06810
C2303       C  0.00425160  0.05791346  0.75729710     0.14060
C2304       C  0.00890286  0.09300283  0.75761051    -0.20300
C2305       C  0.51994833  0.10918240  0.72988670    -0.06810
C2306       C  0.52621160  0.08854453  0.70066486     0.14050
C2307       C  0.53723577  0.10358123  0.66965000    -0.23640
H2308       H  0.52756422  0.03745804  0.67824711     0.15340
H2309       H  0.00389826  0.10786339  0.78047656     0.15360
C2310       C  0.99392638  0.04446038  0.78929928    -0.23590
H2311       H  0.54088749  0.08386569  0.64915058     0.05580
H2312       H  0.56127397  0.11756089  0.67461498     0.08800
H2313       H  0.51803307  0.12097941  0.66119388     0.08800
H2314       H  0.99255514  0.01682026  0.78788399     0.08790
H2315       H  0.96907475  0.05421706  0.79601901     0.08790
H2316       H  0.01233126  0.05281078  0.80939434     0.05560
C2317       C  0.51176877  0.49896898  0.22790269     0.00630
C2318       C  0.98342993  0.97868982  0.23056834     0.00630
Zn2319     Zn  0.99284389  0.70641772  0.27118078     1.49720
Zn2320     Zn  0.53208353  0.71937657  0.21062883     1.49360
Zn2321     Zn  0.96014251  0.75614519  0.21464373     1.49110
Zn2322     Zn  0.50926879  0.77633118  0.27298775     1.49480
O2323       O  0.99839141  0.73992931  0.24008017    -1.84060
O2324       O  0.00754230  0.66129500  0.25813004    -0.74690
O2325       O  0.51924468  0.72784186  0.16248091    -0.74510
O2326       O  0.92004149  0.72934154  0.23169091    -0.74030
O2327       O  0.53289270  0.66582019  0.21126897    -0.74710
O2328       O  0.94689140  0.69916387  0.26801815    -0.74310
O2329       O  0.96673127  0.74516740  0.16475646    -0.74890
O2330       O  0.49473576  0.82075225  0.26010882    -0.74280
O2331       O  0.57587666  0.74447224  0.22700950    -0.75040
O2332       O  0.95786522  0.80965994  0.21916728    -0.74430
O2333       O  0.55573696  0.77913482  0.26772654    -0.74900
O2334       O  0.50045256  0.77135080  0.32283177    -0.74810
O2335       O  0.00239372  0.71612101  0.32003934    -0.74590
C2336       C  0.52094443  0.64736387  0.23290320     0.77200
C2337       C  0.49210924  0.73602192  0.14811388     0.77690
C2338       C  0.92056820  0.70728455  0.25334159     0.76650
C2339       C  0.97524182  0.83110762  0.23807112     0.77020
C2340       C  0.57959264  0.76763294  0.25088594     0.78160
C2341       C  0.00072288  0.74401430  0.33731085     0.77210
Zn2342     Zn  0.78192059  0.98481347  0.26904216     1.49720
Zn2343     Zn  0.77324450  0.53432329  0.21572853     1.49360
Zn2344     Zn  0.72612624  0.96655813  0.20701986     1.49110
Zn2345     Zn  0.71531127  0.51654607  0.26967986     1.49480
O2346       O  0.74823103  0.00060555  0.23919163    -1.84060
O2347       O  0.82687280  0.00818764  0.26878102    -0.74690
O2348       O  0.76027748  0.52919768  0.16519585    -0.74510
O2349       O  0.75721648  0.92554985  0.20505393    -0.74030
O2350       O  0.82502279  0.52575326  0.21869710    -0.74710
O2351       O  0.79281058  0.94213063  0.24670851    -0.74310
O2352       O  0.72943658  0.98204169  0.16047160    -0.74890
O2353       O  0.66968839  0.50312640  0.25373088    -0.74280
O2354       O  0.76047586  0.58025558  0.24005246    -0.75040
O2355       O  0.67384877  0.96077838  0.21535349    -0.74430
O2356       O  0.71915928  0.56503216  0.27246820    -0.74900
O2357       O  0.72097764  0.50443177  0.31759053    -0.74810
O2358       O  0.77000413  0.98089640  0.31747688    -0.74590
C2359       C  0.84208968  0.01598656  0.24325245     0.77200
C2360       C  0.74388336  0.50624525  0.14714159     0.77690
C2361       C  0.78443235  0.92221701  0.22171547     0.76650
C2362       C  0.65585358  0.48027926  0.23412557     0.77020
C2363       C  0.73809522  0.58718735  0.26156612     0.78160
C2364       C  0.74459012  0.99101684  0.33320187     0.77210
C2365       C  0.73165681  0.50691854  0.00125244     0.00630
C2366       C  0.73174521  0.98047292  0.47695378     0.00630
C2367       C  0.50023101  0.73628122  0.00424152     0.00630
C2368       C  0.97612793  0.73782591  0.47954234     0.00630
Zn2369     Zn  0.76710531  0.71353139  0.45731984     1.49720
Zn2370     Zn  0.71040450  0.71340901  0.01059849     1.49360
Zn2371     Zn  0.76961764  0.77267468  0.01300415     1.49110
Zn2372     Zn  0.70622778  0.77147501  0.46693403     1.49480
O2373       O  0.73840865  0.74232064  0.98690681    -1.84060
O2374       O  0.75381551  0.66336857  0.45620552    -0.74690
O2375       O  0.72035505  0.72456373  0.05743823    -0.74510
O2376       O  0.81800388  0.76166993  0.00732376    -0.74030
O2377       O  0.72137568  0.66586848  0.99980227    -0.74710
O2378       O  0.81636316  0.71600196  0.47217784    -0.74310
O2379       O  0.76013144  0.76503300  0.05830073    -0.74890
O2380       O  0.71472963  0.81964336  0.48230102    -0.74280
O2381       O  0.66036762  0.71793819  0.00394779    -0.75040
O2382       O  0.76357234  0.82288462  0.00837299    -0.74430
O2383       O  0.65790309  0.76199551  0.47400270    -0.74900
O2384       O  0.71596710  0.76159167  0.42013300    -0.74810
O2385       O  0.76284355  0.73523002  0.41383784    -0.74590
C2386       C  0.73714327  0.64883575  0.97766191     0.77200
C2387       C  0.74053028  0.74577283  0.07248060     0.77690
C2388       C  0.83268720  0.73770984  0.49136306     0.76650
C2389       C  0.73853255  0.83726466  0.49632767     0.77020
C2390       C  0.64354506  0.73960169  0.98954965     0.78160
C2391       C  0.74730334  0.76290040  0.41754699     0.77210
Zn2392     Zn  0.76666716  0.81807727  0.26764271     1.49720
Zn2393     Zn  0.74850561  0.78296922  0.32800104     1.49360
Zn2394     Zn  0.75428311  0.74232163  0.27351373     1.49110
Zn2395     Zn  0.81949178  0.78159890  0.30529069     1.49480
O2396       O  0.77428813  0.78158009  0.29231888    -1.84060
O2397       O  0.72361969  0.84068495  0.27820089    -0.74690
O2398       O  0.73912711  0.73453706  0.34028285    -0.74510
O2399       O  0.74858700  0.74442923  0.22710498    -0.74030
O2400       O  0.70839323  0.80296202  0.31290409    -0.74710
O2401       O  0.76021961  0.79883232  0.22181275    -0.74310
O2402       O  0.71111849  0.73538045  0.29377315    -0.74890
O2403       O  0.82815432  0.73232294  0.30823145    -0.74280
O2404       O  0.77256295  0.81357390  0.35763049    -0.75040
O2405       O  0.78448484  0.70566074  0.28135935    -0.74430
O2406       O  0.82655361  0.81235911  0.34843568    -0.74900
O2407       O  0.84276689  0.80015615  0.26665843    -0.74810
O2408       O  0.80925298  0.84398418  0.27022926    -0.74590
C2409       C  0.70119291  0.82486011  0.29275762     0.77200
C2410       C  0.72024819  0.71920845  0.31792019     0.77690
C2411       C  0.75285634  0.76912479  0.20981055     0.76650
C2412       C  0.81294733  0.70536589  0.29576465     0.77020
C2413       C  0.80213473  0.82330552  0.36549744     0.78160
C2414       C  0.83351623  0.82826839  0.25684401     0.77210
C2415       C  0.80107272  0.79421356  0.43114150    -0.20240
C2416       C  0.76613554  0.79537673  0.42512384    -0.06810
C2417       C  0.75253470  0.82746018  0.41860762     0.14060
C2418       C  0.77561060  0.85312942  0.41106193    -0.20300
C2419       C  0.80639455  0.84153395  0.39904283    -0.06810
C2420       C  0.82169832  0.82005687  0.42023221     0.14050
C2421       C  0.85887856  0.81751355  0.42111996    -0.23640
H2422       H  0.81233357  0.77170208  0.43919897     0.15340
H2423       H  0.76617384  0.87619752  0.40204589     0.15360
C2424       C  0.71643996  0.83158853  0.40813231    -0.23590
H2425       H  0.86871333  0.82902147  0.44531885     0.05580
H2426       H  0.87018769  0.83174276  0.40151545     0.08800
H2427       H  0.86639156  0.79076910  0.41732347     0.08800
H2428       H  0.69891396  0.82256213  0.42617729     0.08790
H2429       H  0.71119428  0.81697267  0.38399281     0.08790
H2430       H  0.71084081  0.85844582  0.40501861     0.05560
C2431       C  0.76926393  0.73677941  0.12376562    -0.20240
C2432       C  0.74131026  0.74886264  0.10768347    -0.06810
C2433       C  0.71696851  0.76748910  0.12487995     0.14060
C2434       C  0.72153403  0.77424842  0.15882766    -0.20300
C2435       C  0.74972193  0.76255738  0.17484536    -0.06810
C2436       C  0.77368055  0.74324751  0.15772781     0.14050
C2437       C  0.80392852  0.73008144  0.17509339    -0.23640
H2438       H  0.78780200  0.72287961  0.10960330     0.15340
H2439       H  0.70321265  0.78848384  0.17285892     0.15360
C2440       C  0.68698637  0.78089408  0.10732010    -0.23590
H2441       H  0.82035121  0.71615109  0.15736835     0.05580
H2442       H  0.79609988  0.71252448  0.19360274     0.08800
H2443       H  0.81869035  0.75134747  0.18791880     0.08800
H2444       H  0.67204890  0.75959548  0.09473284     0.08790
H2445       H  0.69518264  0.79804387  0.08857564     0.08790
H2446       H  0.67068461  0.79525204  0.12485804     0.05560
C2447       C  0.88630667  0.76699705  0.48515470    -0.20240
C2448       C  0.86964154  0.73753519  0.49273001    -0.06810
C2449       C  0.88850444  0.70936808  0.00028447     0.14060
C2450       C  0.92360067  0.71128737  0.99897323    -0.20300
C2451       C  0.93997669  0.73975440  0.48780152    -0.06810
C2452       C  0.92083444  0.76823689  0.48130694     0.14050
C2453       C  0.93548298  0.80042851  0.46996738    -0.23640
H2454       H  0.87188365  0.78902320  0.48106783     0.15340
H2455       H  0.93812537  0.68954022  0.00427632     0.15360
C2456       C  0.87175162  0.67747647  0.00978493    -0.23590
H2457       H  0.92569915  0.80426542  0.44467064     0.05580
H2458       H  0.92845691  0.82210533  0.48717219     0.08800
H2459       H  0.96284690  0.80063654  0.46919034     0.08800
H2460       H  0.85537688  0.66656334  0.98897813     0.08790
H2461       H  0.85656894  0.68312859  0.03198575     0.08790
H2462       H  0.89020126  0.65819119  0.01569401     0.05560
C2463       C  0.58872011  0.70922597  0.98299908    -0.20240
C2464       C  0.60677710  0.73933348  0.99155832    -0.06810
C2465       C  0.58951704  0.76862741  0.50250272     0.14060
C2466       C  0.55483804  0.76674256  0.50559778    -0.20300
C2467       C  0.53658024  0.73671488  0.99698445    -0.06810
C2468       C  0.55375175  0.70769511  0.98478842     0.14050
C2469       C  0.53569822  0.67522543  0.97305889    -0.23640
H2470       H  0.60205271  0.68695724  0.97423928     0.15340
H2471       H  0.54190690  0.78897311  0.51491870     0.15360
C2472       C  0.60764543  0.80164945  0.51223734    -0.23590
H2473       H  0.55330722  0.65498977  0.96559566     0.05580
H2474       H  0.51980351  0.67925808  0.95106201     0.08800
H2475       H  0.52015332  0.66596542  0.99267373     0.08800
H2476       H  0.61999379  0.81097272  0.49040266     0.08790
H2477       H  0.62662497  0.79813702  0.53208342     0.08790
H2478       H  0.59040530  0.82145377  0.52170918     0.05560
C2479       C  0.75893780  0.93264076  0.00381869    -0.20240
C2480       C  0.73212310  0.94441407  0.48517816    -0.06810
C2481       C  0.70705346  0.92111177  0.47228447     0.14060
C2482       C  0.70912666  0.88730359  0.47893648    -0.20300
C2483       C  0.73673897  0.87479462  0.49586032    -0.06810
C2484       C  0.76186785  0.89808104  0.00896910     0.14050
C2485       C  0.79203146  0.88700690  0.02786902    -0.23640
H2486       H  0.77840083  0.95040721  0.01318314     0.15340
H2487       H  0.68932398  0.87017180  0.46919978     0.15360
C2488       C  0.67803577  0.93101630  0.45079894    -0.23590
H2489       H  0.80845592  0.90876517  0.03696650     0.05580
H2490       H  0.80697298  0.86979378  0.01152169     0.08800
H2491       H  0.78410606  0.87402259  0.04977071     0.08800
H2492       H  0.68701929  0.93848670  0.42675420     0.08790
H2493       H  0.66409279  0.95178141  0.46339078     0.08790
H2494       H  0.65999510  0.90972069  0.44492692     0.05560
C2495       C  0.70752218  0.59820569  0.99368720    -0.20240
C2496       C  0.73526305  0.61152028  0.97839513    -0.06810
C2497       C  0.76120715  0.58961764  0.96852849     0.14060
C2498       C  0.75898807  0.55539949  0.97535498    -0.20300
C2499       C  0.73155644  0.54258138  0.99174369    -0.06810
C2500       C  0.70539521  0.56450910  0.00076920     0.14050
C2501       C  0.67441077  0.55371307  0.01762560    -0.23640
H2502       H  0.68721172  0.61454228  0.00097729     0.15340
H2503       H  0.77926219  0.53875306  0.96887052     0.15360
C2504       C  0.79184965  0.60224876  0.95232025    -0.23590
H2505       H  0.65205761  0.56012118  0.00279218     0.05580
H2506       H  0.67346392  0.56712148  0.04268876     0.08800
H2507       H  0.67291144  0.52644607  0.52013372     0.08800
H2508       H  0.80459641  0.62235851  0.96889445     0.08790
H2509       H  0.78475193  0.61237736  0.42836925     0.08790
H2510       H  0.80987095  0.58178466  0.94709387     0.05560
C2511       C  0.84162383  0.90139168  0.22700986    -0.20240
C2512       C  0.80910155  0.89601544  0.21292451    -0.06810
C2513       C  0.80149112  0.86449105  0.19559704     0.14060
C2514       C  0.82315031  0.83769163  0.20060242    -0.20300
C2515       C  0.84680853  0.84164327  0.22704608    -0.06810
C2516       C  0.86112196  0.87389539  0.23362907     0.14050
C2517       C  0.89169540  0.87948888  0.25568064    -0.23640
H2518       H  0.85007914  0.92636120  0.23684640     0.15340
H2519       H  0.81594089  0.81245109  0.19071088     0.15360
C2520       C  0.77034453  0.85844798  0.17431985    -0.23590
H2521       H  0.90928112  0.89684723  0.24445972     0.05580
H2522       H  0.90426832  0.85529977  0.25914943     0.08800
H2523       H  0.88475500  0.89112867  0.28031133     0.08800
H2524       H  0.76973760  0.87657919  0.15478762     0.08790
H2525       H  0.74801314  0.86160081  0.18973873     0.08790
H2526       H  0.76937560  0.83256009  0.16184435     0.05560
C2527       C  0.70404815  0.63733720  0.27001320    -0.20240
C2528       C  0.73384524  0.62126151  0.27694188    -0.06810
C2529       C  0.75348398  0.63302168  0.30508518     0.14060
C2530       C  0.74553224  0.66355531  0.32269791    -0.20300
C2531       C  0.71796198  0.68203118  0.31287908    -0.06810
C2532       C  0.69532556  0.66696539  0.28835190     0.14050
C2533       C  0.66208821  0.68204610  0.28062827    -0.23640
H2534       H  0.68704448  0.62620404  0.25072282     0.15340
H2535       H  0.76251076  0.67432533  0.34215126     0.15360
C2536       C  0.78244980  0.61300764  0.31669825    -0.23590
H2537       H  0.64195492  0.66285771  0.28278756     0.05580
H2538       H  0.66160745  0.69007517  0.25493987     0.08800
H2539       H  0.65658199  0.70401103  0.29810938     0.08800
H2540       H  0.80095989  0.60984979  0.29687387     0.08790
H2541       H  0.77351611  0.58769266  0.32286346     0.08790
H2542       H  0.79489322  0.62561029  0.33926774     0.05560
C2543       C  0.71519932  0.50332247  0.38669888    -0.20240
C2544       C  0.74233574  0.98836766  0.37016543    -0.06810
C2545       C  0.76627800  0.97198798  0.38955150     0.14060
C2546       C  0.76230464  0.97122167  0.42405101    -0.20300
C2547       C  0.73493626  0.98572100  0.44038113    -0.06810
C2548       C  0.71077324  0.50164967  0.42098121     0.14050
C2549       C  0.67875962  0.51507569  0.43468997    -0.23640
H2550       H  0.69642691  0.51580951  0.37259424     0.15340
H2551       H  0.78068780  0.95862918  0.43854059     0.15360
C2552       C  0.79596803  0.95466269  0.37445651    -0.23590
H2553       H  0.65729827  0.50287416  0.42021401     0.05580
H2554       H  0.67800371  0.54276176  0.43271271     0.08800
H2555       H  0.67553393  0.50975111  0.46077484     0.08800
H2556       H  0.81222193  0.97332173  0.36322785     0.08790
H2557       H  0.78745992  0.93452407  0.35537094     0.08790
H2558       H  0.81136914  0.94255370  0.39324182     0.05560
C2559       C  0.71602305  0.48717324  0.09227537    -0.20240
C2560       C  0.74160599  0.50646022  0.10975778    -0.06810
C2561       C  0.76499736  0.02338751  0.09085155     0.14060
C2562       C  0.76145204  0.02139252  0.05588630    -0.20300
C2563       C  0.73513884  0.50316847  0.03842133    -0.06810
C2564       C  0.71211234  0.48564140  0.05739476     0.14050
C2565       C  0.68203542  0.46633287  0.04255716    -0.23640
H2566       H  0.69799997  0.47370404  0.10607389     0.15340
H2567       H  0.77939463  0.03472638  0.04189567     0.15360
C2568       C  0.79429269  0.04314601  0.10700292    -0.23590
H2569       H  0.68443354  0.43910544  0.04636534     0.05580
H2570       H  0.67845895  0.46931159  0.01592541     0.08800
H2571       H  0.65925232  0.47582505  0.05480617     0.08800
H2572       H  0.80952456  0.02653503  0.12195504     0.08790
H2573       H  0.78540877  0.06484361  0.12307905     0.08290
H2574       H  0.81072364  0.05345431  0.08840491     0.05560
C2575       C  0.88993927  0.68507171  0.29868076    -0.20240
C2576       C  0.89072297  0.69075567  0.26462107    -0.06810
C2577       C  0.86454738  0.67761132  0.24324377     0.14060
C2578       C  0.83570047  0.66564524  0.25776181    -0.20300
C2579       C  0.83172655  0.67420771  0.29177020    -0.06810
C2580       C  0.86041673  0.67434051  0.31216805     0.14050
C2581       C  0.85810727  0.67122245  0.34884148    -0.23640
H2582       H  0.91137107  0.69121831  0.31507641     0.15340
H2583       H  0.81392332  0.65879902  0.24207013     0.15360
C2584       C  0.86682919  0.67660119  0.20614913    -0.23590
H2585       H  0.88269029  0.67589839  0.36183171     0.05580
H2586       H  0.84952346  0.64531226  0.35322626     0.08800
H2587       H  0.84024662  0.68964041  0.35977540     0.08800
H2588       H  0.88882927  0.66190664  0.19812626     0.08790
H2589       H  0.86931761  0.70261318  0.19824328     0.08790
H2590       H  0.84427846  0.66449270  0.19349662     0.05560
C2591       C  0.62917943  0.80107385  0.23784785    -0.20240
C2592       C  0.61156710  0.78363386  0.26079531    -0.06810
C2593       C  0.61951889  0.78941898  0.29506231     0.14060
C2594       C  0.64448808  0.81279171  0.30544907    -0.20300
C2595       C  0.66596266  0.82548787  0.28249119    -0.06810
C2596       C  0.65676490  0.82184495  0.24830119     0.14050
C2597       C  0.67617494  0.83900790  0.22280997    -0.23640
H2598       H  0.62136287  0.79843388  0.21190028     0.15340
H2599       H  0.65109602  0.81637198  0.33170002     0.15360
C2600       C  0.60317132  0.76942292  0.32078222    -0.23590
H2601       H  0.66410027  0.83500633  0.19774573     0.05580
H2602       H  0.70158954  0.82885577  0.22112842     0.08800
H2603       H  0.67774250  0.86659971  0.22967198     0.08800
H2604       H  0.60534825  0.74199866  0.31378513     0.08790
H2605       H  0.57656737  0.77567435  0.32303214     0.08790
H2606       H  0.61512802  0.77477001  0.34576841     0.05560
C2607       C  0.50461899  0.76452801  0.43227272    -0.20240
C2608       C  0.98440393  0.73832519  0.44309561    -0.06810
C2609       C  0.97082767  0.71389034  0.41865371     0.14060
C2610       C  0.97765000  0.71636026  0.38499077    -0.20300
C2611       C  0.99655670  0.74325752  0.37406125    -0.06810
C2612       C  0.51025763  0.76770800  0.39824319     0.14050
C2613       C  0.53131656  0.79686619  0.38855530    -0.23640
H2614       H  0.51519118  0.78340560  0.45048913     0.15340
H2615       H  0.96693022  0.69752778  0.36673595     0.15360
C2616       C  0.94908245  0.68473661  0.42740613    -0.23590
H2617       H  0.54058782  0.81313759  0.41057299     0.05580
H2618       H  0.51649020  0.81282184  0.37259021     0.08800
H2619       H  0.55324894  0.78718458  0.37509559     0.08800
H2620       H  0.92432512  0.69404127  0.43472842     0.08790
H2621       H  0.96090419  0.67153379  0.44769969     0.08790
H2622       H  0.94471233  0.66584554  0.40594716     0.05560
C2623       C  0.48363896  0.76475895  0.09562805    -0.20240
C2624       C  0.49023233  0.73507305  0.11112414    -0.06810
C2625       C  0.99613807  0.70530234  0.09102646     0.14060
C2626       C  0.99683886  0.70621687  0.05629061    -0.20300
C2627       C  0.49238400  0.73621850  0.04064371    -0.06810
C2628       C  0.48530825  0.76593679  0.06089923     0.14050
C2629       C  0.48084944  0.79970601  0.04720934    -0.23640
H2630       H  0.47883245  0.78770898  0.11088878     0.15340
H2631       H  0.00180435  0.68327248  0.04142068     0.15360
C2632       C  0.00146137  0.67228888  0.10618650    -0.23590
H2633       H  0.45531741  0.80870579  0.05213144     0.05580
H2634       H  0.48469859  0.79882992  0.02032632     0.08800
H2635       H  0.49925457  0.81822327  0.05937409     0.08800
H2636       H  0.97964821  0.66616865  0.12109020     0.08790
H2637       H  0.02426211  0.67403287  0.12239635     0.08790
H2638       H  0.00454140  0.65114690  0.08697218     0.05560
C2639       C  0.59941162  0.96723045  0.20483156    -0.20240
C2640       C  0.61813614  0.47833489  0.23382083    -0.06810
C2641       C  0.60022683  0.49137181  0.26178473     0.14060
C2642       C  0.56580889  0.49633892  0.25879953    -0.20300
C2643       C  0.54707614  0.48627171  0.22987579    -0.06810
C2644       C  0.56418481  0.97086588  0.20261991     0.14050
C2645       C  0.54568621  0.95943979  0.17078531    -0.23640
H2646       H  0.61247163  0.95700770  0.18335396     0.15340
H2647       H  0.55321372  0.50855794  0.27963838     0.15360
C2648       C  0.61675850  0.50028903  0.29543623    -0.23590
H2649       H  0.56279075  0.94895130  0.15167477     0.05580
H2650       H  0.53258071  0.98084118  0.16067281     0.08800
H2651       H  0.52723295  0.93938977  0.17535295     0.08800
H2652       H  0.63218939  0.52370889  0.29523663     0.08790
H2653       H  0.63226175  0.47906865  0.30268661     0.08790
H2654       H  0.59816722  0.50504381  0.31501106     0.05560
C2655       C  0.89672499  0.51685148  0.21250514    -0.20240
C2656       C  0.87958154  0.01096298  0.24168223    -0.06810
C2657       C  0.89817886  0.99665208  0.26750539     0.14060
C2658       C  0.93166628  0.98794215  0.26292301    -0.20300
C2659       C  0.94859959  0.99307063  0.23377188    -0.06810
C2660       C  0.93053843  0.50780555  0.20808183     0.14050
C2661       C  0.94532324  0.51249660  0.17493014    -0.23640
H2662       H  0.88326500  0.52725816  0.19221324     0.15340
H2663       H  0.94454235  0.97592278  0.28238615     0.15360
C2664       C  0.88327760  0.98917567  0.30011048    -0.23590
H2665       H  0.92962621  0.49878359  0.15504472     0.05580
H2666       H  0.97084397  0.50265841  0.17286787     0.08800
H2667       H  0.94611474  0.53976570  0.17068633     0.08800
H2668       H  0.86327390  0.96951305  0.29592380     0.08790
H2669       H  0.87338534  0.01262620  0.31257027     0.08790
H2670       H  0.90194918  0.97936233  0.31749689     0.05560
C2671       C  0.96934837  0.92014737  0.20547781    -0.20240
C2672       C  0.98451183  0.94061674  0.23203466    -0.06810
C2673       C  0.49413455  0.92457460  0.26095120     0.14060
C2674       C  0.48909140  0.88953970  0.26191467    -0.20300
C2675       C  0.97509042  0.86883758  0.23509521    -0.06810
C2676       C  0.96494401  0.88469342  0.20636347     0.14050
C2677       C  0.94935945  0.86467127  0.17663725    -0.23640
H2678       H  0.96066656  0.93216071  0.18377860     0.15340
H2679       H  0.49675109  0.87804133  0.28424304     0.15360
C2680       C  0.50977970  0.94320562  0.29151499    -0.23590
H2681       H  0.94305429  0.88100221  0.15639290     0.05580
H2682       H  0.92596429  0.85212874  0.18374871     0.08800
H2683       H  0.96694525  0.84538573  0.16681759     0.08800
H2684       H  0.49471147  0.96458629  0.30068868     0.08790
H2685       H  0.53521369  0.95153881  0.28639923     0.08790
H2686       H  0.51233680  0.92674634  0.31236508     0.05560
C2687       C  0.52181235  0.55299876  0.20040013    -0.20240
C2688       C  0.51049338  0.53709079  0.22820662    -0.06810
C2689       C  0.00424984  0.55791962  0.25728725     0.14060
C2690       C  0.00890566  0.59300824  0.25759854    -0.20300
C2691       C  0.51995876  0.60918192  0.22989270    -0.06810
C2692       C  0.52622601  0.58854281  0.20067282     0.14050
C2693       C  0.53725862  0.60357796  0.16966017    -0.23640
H2694       H  0.52757785  0.53745571  0.17825657     0.15340
H2695       H  0.00389967  0.60787064  0.28046316     0.15360
C2696       C  0.99391694  0.54447041  0.28928891    -0.23590
H2697       H  0.54091224  0.58386174  0.14916182     0.05580
H2698       H  0.56129755  0.61755507  0.17462984     0.08800
H2699       H  0.51805986  0.62097830  0.16120007     0.08800
H2700       H  0.99254107  0.51683036  0.28787606     0.08790
H2701       H  0.96906567  0.55423143  0.29600387     0.08790
H2702       H  0.01231966  0.55281970  0.30938632     0.05560
C2703       C  0.51177251  0.49896889  0.72789563     0.00630
C2704       C  0.98343326  0.97868505  0.73056608     0.00630
Zn2705     Zn  0.99284652  0.70642189  0.77118950     1.49720
Zn2706     Zn  0.53206585  0.71937534  0.71062283     1.49360
Zn2707     Zn  0.96013343  0.75613761  0.71464055     1.49110
Zn2708     Zn  0.50925796  0.77632923  0.77298536     1.49480
O2709       O  0.99838264  0.73992607  0.74007839    -1.84060
O2710       O  0.00754860  0.66129390  0.75815058    -0.74690
O2711       O  0.51923171  0.72785039  0.66247775    -0.74510
O2712       O  0.92003667  0.72933486  0.73169807    -0.74030
O2713       O  0.53286947  0.66582027  0.71125587    -0.74710
O2714       O  0.94689457  0.69916525  0.76802739    -0.74310
O2715       O  0.96672012  0.74514457  0.66475417    -0.74890
O2716       O  0.49473517  0.82075143  0.76010297    -0.74280
O2717       O  0.57586049  0.74445594  0.72701035    -0.75040
O2718       O  0.95785706  0.80965488  0.71915473    -0.74430
O2719       O  0.55572668  0.77912015  0.76773047    -0.74900
O2720       O  0.50043750  0.77135132  0.82282926    -0.74810
O2721       O  0.00239428  0.71614364  0.82004767    -0.74590
C2722       C  0.52093252  0.64736396  0.73289544     0.77200
C2723       C  0.49209588  0.73603067  0.64811199     0.77690
C2724       C  0.92056877  0.70728102  0.75335200     0.76650
C2725       C  0.97524119  0.83110253  0.73805183     0.77020
C2726       C  0.57958013  0.76761129  0.75089083     0.78160
C2727       C  0.00071144  0.74404156  0.83730972     0.77210
Zn2728     Zn  0.78191415  0.98475470  0.76903559     1.49720
Zn2729     Zn  0.77324771  0.53429675  0.71573596     1.49360
Zn2730     Zn  0.72611955  0.96653519  0.70701065     1.49110
Zn2731     Zn  0.71531574  0.51650785  0.76967933     1.49480
O2732       O  0.74823352  0.00056989  0.73918948    -1.84060
O2733       O  0.82687498  0.00810534  0.76876713    -0.74690
O2734       O  0.76028456  0.52918049  0.66520095    -0.74510
O2735       O  0.75719206  0.92551626  0.70503418    -0.74030
O2736       O  0.82502578  0.52573757  0.71870873    -0.74710
O2737       O  0.79278492  0.94206436  0.74670045    -0.74310
O2738       O  0.72943720  0.98202851  0.66046861    -0.74890
O2739       O  0.66969284  0.50309911  0.75373040    -0.74280
O2740       O  0.76048063  0.58022441  0.74006957    -0.75040
O2741       O  0.67384274  0.96076294  0.71533972    -0.74430
O2742       O  0.71916468  0.56499162  0.77248021    -0.74900
O2743       O  0.72097974  0.50439092  0.81758620    -0.74810
O2744       O  0.77000205  0.98084972  0.81747485    -0.74590
C2745       C  0.84209118  0.01594641  0.74325298     0.77200
C2746       C  0.74388852  0.50623213  0.64714295     0.77690
C2747       C  0.78440165  0.92216369  0.72169901     0.76650
C2748       C  0.65585330  0.48026122  0.73411858     0.77020
C2749       C  0.73810098  0.58715018  0.76158545     0.78160
C2750       C  0.74458969  0.99097641  0.83319916     0.77210
C2751       C  0.73166291  0.50691704  0.50125507     0.00630
C2752       C  0.73173700  0.98047128  0.97695447     0.00630
C2753       C  0.50022873  0.73629074  0.50424257     0.00630
C2754       C  0.97612833  0.73788433  0.97954751     0.00630
Zn2755     Zn  0.76711214  0.71353691  0.95731760     1.49720
Zn2756     Zn  0.71040000  0.71341201  0.51060214     1.49360
Zn2757     Zn  0.76962294  0.77266948  0.51301503     1.49110
Zn2758     Zn  0.70622364  0.77147362  0.96692867     1.49480
O2759       O  0.73840978  0.74232080  0.48691327    -1.84060
O2760       O  0.75382673  0.66337025  0.95619962    -0.74690
O2761       O  0.72034296  0.72457196  0.55744206    -0.74510
O2762       O  0.81800829  0.76164979  0.50733149    -0.74030
O2763       O  0.72137087  0.66586943  0.49981294    -0.74710
O2764       O  0.81637051  0.71601562  0.97217966    -0.74310
O2765       O  0.76012977  0.76503175  0.55831530    -0.74890
O2766       O  0.71471234  0.81964301  0.98230253    -0.74280
O2767       O  0.66036409  0.71794212  0.50394515    -0.75040
O2768       O  0.76358601  0.82288284  0.50837912    -0.74430
O2769       O  0.65790030  0.76198162  0.97399163    -0.74900
O2770       O  0.71597177  0.76160627  0.92012806    -0.74810
O2771       O  0.76284917  0.73524373  0.91384000    -0.74590
C2772       C  0.73713586  0.64883563  0.47767124     0.77200
C2773       C  0.74051914  0.74577615  0.57249021     0.77690
C2774       C  0.83268915  0.73773112  0.99136138     0.76650
C2775       C  0.73851561  0.83726515  0.99632749     0.77020
C2776       C  0.64354437  0.73961226  0.48955356     0.78160
C2777       C  0.74730903  0.76291458  0.91754973     0.77210
Zn2778     Zn  0.76664179  0.81802510  0.76765692     1.49720
Zn2779     Zn  0.74850957  0.78292034  0.82802491     1.49360
Zn2780     Zn  0.75427181  0.74226787  0.77353864     1.49110
Zn2781     Zn  0.81948491  0.78156311  0.80528878     1.49480
O2782       O  0.77427706  0.78153155  0.79233224    -1.84060
O2783       O  0.72360746  0.84064091  0.77824394    -0.74690
O2784       O  0.73914792  0.73448976  0.84031892    -0.74510
O2785       O  0.74855277  0.74436735  0.72712889    -0.74030
O2786       O  0.70838928  0.80290678  0.81293896    -0.74710
O2787       O  0.76016517  0.79877370  0.72183213    -0.74310
O2788       O  0.71111859  0.73532230  0.79382002    -0.74890
O2789       O  0.82815461  0.73229224  0.80824557    -0.74280
O2790       O  0.77257341  0.81353276  0.85763746    -0.75040
O2791       O  0.78448803  0.70561695  0.78137986    -0.74430
O2792       O  0.82655946  0.81234442  0.84842003    -0.74900
O2793       O  0.84274107  0.80010243  0.76663739    -0.74810
O2794       O  0.80922754  0.84393018  0.77021163    -0.74590
C2795       C  0.70118422  0.82480943  0.79279864     0.77200
C2796       C  0.72026142  0.71915580  0.81796646     0.77690
C2797       C  0.75280542  0.76906437  0.70983241     0.76650
C2798       C  0.81295251  0.70533074  0.79578297     0.77020
C2799       C  0.80214272  0.82328362  0.86548877     0.78160
C2800       C  0.83348353  0.82821000  0.75681779     0.77210
C2801       C  0.80107841  0.79422565  0.93114511    -0.20240
C2802       C  0.76614143  0.79539130  0.92512830    -0.06810
C2803       C  0.75254461  0.82747485  0.91860451     0.14060
C2804       C  0.77562336  0.85313458  0.91104076    -0.20300
C2805       C  0.80640564  0.84152936  0.89902569    -0.06810
C2806       C  0.82170690  0.82006140  0.92022584     0.14050
C2807       C  0.85888643  0.81751100  0.92111094    -0.23640
H2808       H  0.81233676  0.77171481  0.93920629     0.15340
H2809       H  0.76618891  0.87619864  0.90201375     0.15360
C2810       C  0.71644996  0.83160617  0.90813158    -0.23590
H2811       H  0.86872522  0.82903733  0.94530107     0.05580
H2812       H  0.87019572  0.83171965  0.90149186     0.08800
H2813       H  0.86639493  0.79076351  0.91733597     0.08800
H2814       H  0.69892436  0.82257456  0.92617405     0.08790
H2815       H  0.71120365  0.81699688  0.88398883     0.08790
H2816       H  0.71085142  0.85846523  0.90502631     0.05560
C2817       C  0.76923507  0.73675895  0.62377969    -0.20240
C2818       C  0.74129141  0.74885814  0.60769412    -0.06810
C2819       C  0.71694123  0.76747127  0.62489239     0.14060
C2820       C  0.72148981  0.77420350  0.65884557    -0.20300
C2821       C  0.74966880  0.76249733  0.67486659    -0.06810
C2822       C  0.77363464  0.74319920  0.65774659     0.14050
C2823       C  0.80387481  0.73001944  0.67511440    -0.23640
H2824       H  0.78777809  0.72286682  0.60961711     0.15340
H2825       H  0.70316525  0.78843412  0.67287792     0.15360
C2826       C  0.68696866  0.78089121  0.60732958    -0.23590
H2827       H  0.82030583  0.71610296  0.65738755     0.05580
H2828       H  0.79603693  0.71244615  0.69360530     0.08800
H2829       H  0.81863146  0.75127695  0.68796189     0.08800
H2830       H  0.67203540  0.75960153  0.59472045     0.08790
H2831       H  0.69517601  0.79805622  0.58860304     0.08790
H2832       H  0.67065916  0.79523681  0.62486920     0.05560
C2833       C  0.88630278  0.76703614  0.98516655    -0.20240
C2834       C  0.86964366  0.73756692  0.99273244    -0.06810
C2835       C  0.88849601  0.70933234  0.50028305     0.14060
C2836       C  0.92359251  0.71124177  0.49896692    -0.20300
C2837       C  0.93997853  0.73980537  0.98781191    -0.06810
C2838       C  0.92083104  0.76828535  0.98132283     0.14050
C2839       C  0.93547585  0.80048281  0.96999261    -0.23640
H2840       H  0.87187520  0.78906044  0.98108318     0.15340
H2841       H  0.93811236  0.68949187  0.50427187     0.15360
C2842       C  0.87173601  0.67744710  0.50979010    -0.23590
H2843       H  0.92569511  0.80432386  0.94469591     0.05580
H2844       H  0.92844472  0.82215464  0.98720117     0.08800
H2845       H  0.96284016  0.80069482  0.96921815     0.08800
H2846       H  0.85535537  0.66653634  0.48898693     0.08790
H2847       H  0.85655818  0.68310666  0.53199299     0.08790
H2848       H  0.89018103  0.65815721  0.51569850     0.05560
C2849       C  0.58872000  0.70923567  0.48300807    -0.20240
C2850       C  0.60677584  0.73934543  0.49155971    -0.06810
C2851       C  0.58952015  0.76861342  0.00251048     0.14060
C2852       C  0.55484115  0.76672960  0.00560432    -0.20300
C2853       C  0.53657855  0.73672506  0.49698650    -0.06810
C2854       C  0.55375175  0.70770384  0.48479712     0.14050
C2855       C  0.53570026  0.67523137  0.47307352    -0.23640
H2856       H  0.60205358  0.68696544  0.47425432     0.15340
H2857       H  0.54191096  0.78895840  0.01493200     0.15360
C2858       C  0.60765097  0.80163169  0.01225623    -0.23590
H2859       H  0.55331037  0.65499638  0.46561134     0.05580
H2860       H  0.51980296  0.67925954  0.45107725     0.08800
H2861       H  0.52015880  0.66597265  0.49269133     0.08800
H2862       H  0.62000155  0.81096146  0.99042574     0.08790
H2863       H  0.62662916  0.79811092  0.03210135     0.08790
H2864       H  0.59041210  0.82143470  0.02173362     0.05560
C2865       C  0.75895389  0.93264186  0.50381216    -0.20240
C2866       C  0.73210891  0.94441403  0.98518324    -0.06810
C2867       C  0.70703741  0.92111349  0.97228989     0.14060
C2868       C  0.70910862  0.88730507  0.97894146    -0.20300
C2869       C  0.73672051  0.87479487  0.99586456    -0.06810
C2870       C  0.76188611  0.89808201  0.50896264     0.14050
C2871       C  0.79205139  0.88700884  0.52786039    -0.23640
H2872       H  0.77841596  0.95040945  0.51317650     0.15340
H2873       H  0.68930591  0.87017381  0.96920358     0.15360
C2874       C  0.67802082  0.93101983  0.95080394    -0.23590
H2875       H  0.80847703  0.90876737  0.53695448     0.05580
H2876       H  0.80699062  0.86979387  0.51151259     0.08800
H2877       H  0.78412817  0.87402655  0.54976406     0.08800
H2878       H  0.68700503  0.93848707  0.92675837     0.08790
H2879       H  0.66408032  0.95178764  0.96339441     0.08790
H2880       H  0.65997775  0.90972597  0.94493376     0.05560
C2881       C  0.70752128  0.59820404  0.49370195    -0.20240
C2882       C  0.73525871  0.61152069  0.47840615    -0.06810
C2883       C  0.76120314  0.58962032  0.46853508     0.14060
C2884       C  0.75898764  0.55540202  0.47536028    -0.20300
C2885       C  0.73155871  0.54258100  0.49175058    -0.06810
C2886       C  0.70539715  0.56450646  0.50078110     0.14050
C2887       C  0.67441518  0.55370674  0.51763936    -0.23640
H2888       H  0.68721105  0.61453930  0.50099588     0.15340
H2889       H  0.77926227  0.53875736  0.46887268     0.15360
C2890       C  0.79184257  0.60225378  0.45232321    -0.23590
H2891       H  0.65206013  0.56011568  0.50280916     0.05580
H2892       H  0.67347036  0.56711209  0.54270408     0.08800
H2893       H  0.67290539  0.52645308  0.02012331     0.08800
H2894       H  0.80458982  0.62236419  0.46889615     0.08790
H2895       H  0.78476272  0.61237277  0.92836550     0.08790
H2896       H  0.80986487  0.58179111  0.44709443     0.05560
C2897       C  0.84158926  0.90132554  0.72696818    -0.20240
C2898       C  0.80906042  0.89595558  0.71289830    -0.06810
C2899       C  0.80143408  0.86443058  0.69557933     0.14060
C2900       C  0.82308863  0.83762600  0.70057851    -0.20300
C2901       C  0.84676134  0.84157620  0.72700950    -0.06810
C2902       C  0.86108479  0.87382534  0.73358051     0.14050
C2903       C  0.89166925  0.87941399  0.75561697    -0.23640
H2904       H  0.85005303  0.92629431  0.73679899     0.15340
H2905       H  0.81586809  0.81238575  0.69069504     0.15360
C2906       C  0.77027524  0.85839268  0.67431981    -0.23590
H2907       H  0.90925044  0.89676980  0.74438703     0.05580
H2908       H  0.90424119  0.85522291  0.75907883     0.08800
H2909       H  0.88474266  0.89105484  0.78025168     0.08800
H2910       H  0.76966314  0.87651877  0.65478304     0.08790
H2911       H  0.74795355  0.86155762  0.68975069     0.08790
H2912       H  0.76929259  0.83250241  0.66185033     0.05560
C2913       C  0.70404476  0.63728803  0.77006940    -0.20240
C2914       C  0.73385228  0.62121957  0.77697292    -0.06810
C2915       C  0.75350645  0.63297815  0.80510618     0.14060
C2916       C  0.74555864  0.66350714  0.82272999    -0.20300
C2917       C  0.71797723  0.68197855  0.81293194    -0.06810
C2918       C  0.69532664  0.66691015  0.78842014     0.14050
C2919       C  0.66207983  0.68198456  0.78072384    -0.23640
H2920       H  0.68703040  0.62615418  0.75078887     0.15340
H2921       H  0.76254767  0.67427828  0.84217355     0.15360
C2922       C  0.78248331  0.61296654  0.81669763    -0.23590
H2923       H  0.64195360  0.66279199  0.78289773     0.05580
H2924       H  0.66157598  0.69001558  0.75503612     0.08800
H2925       H  0.65658347  0.70394747  0.79821138     0.08800
H2926       H  0.80098122  0.60981518  0.79686127     0.08790
H2927       H  0.77355868  0.58764866  0.82286351     0.08790
H2928       H  0.79493819  0.62556711  0.83926187     0.05560
C2929       C  0.71520219  0.50330267  0.88669315    -0.20240
C2930       C  0.74233491  0.98833737  0.87016383    -0.06810
C2931       C  0.76627369  0.97195908  0.88955476     0.14060
C2932       C  0.76229951  0.97120395  0.92405523    -0.20300
C2933       C  0.73493289  0.98571257  0.94038122    -0.06810
C2934       C  0.71077429  0.50164024  0.92097615     0.14050
C2935       C  0.67876191  0.51507467  0.93468007    -0.23640
H2936       H  0.69643266  0.51578955  0.87258473     0.15340
H2937       H  0.78067979  0.95861193  0.93854868     0.15360
C2938       C  0.79596003  0.95462339  0.87446385    -0.23590
H2939       H  0.65729964  0.50287431  0.92020462     0.05580
H2940       H  0.67801109  0.54276018  0.93269754     0.08800
H2941       H  0.67553280  0.50975552  0.96076584     0.08800
H2942       H  0.81221762  0.97327540  0.86322975     0.08790
H2943       H  0.78744780  0.93448170  0.85538321     0.08790
H2944       H  0.81135842  0.94251653  0.89325274     0.05560
C2945       C  0.71603192  0.48716199  0.59227492    -0.20240
C2946       C  0.74161230  0.50645105  0.60975940    -0.06810
C2947       C  0.76500157  0.02338321  0.59085526     0.14060
C2948       C  0.76145745  0.02138996  0.55588987    -0.20300
C2949       C  0.73514670  0.50316330  0.53842305    -0.06810
C2950       C  0.71212199  0.48563203  0.55739449     0.14050
C2951       C  0.68204721  0.46632123  0.54255495    -0.23640
H2952       H  0.69800993  0.47368937  0.60607164     0.15340
H2953       H  0.77939859  0.03472746  0.54190077     0.15360
C2954       C  0.79429343  0.04314533  0.60700903    -0.23590
H2955       H  0.68444860  0.43909353  0.54636031     0.05580
H2956       H  0.67847011  0.46930264  0.51592373     0.08800
H2957       H  0.65926296  0.47580925  0.55480477     0.08800
H2958       H  0.80952798  0.02653547  0.62195984     0.08790
H2959       H  0.78540549  0.06483971  0.62308693     0.08290
H2960       H  0.81072291  0.05345850  0.58841251     0.05560
C2961       C  0.88994957  0.68506421  0.79869542    -0.20240
C2962       C  0.89072764  0.69074791  0.76463526    -0.06810
C2963       C  0.86455390  0.67759456  0.74326030     0.14060
C2964       C  0.83571363  0.66561639  0.75778103    -0.20300
C2965       C  0.83174008  0.67417796  0.79178956    -0.06810
C2966       C  0.86043259  0.67432146  0.81218525     0.14050
C2967       C  0.85812822  0.67120413  0.84885929    -0.23640
H2968       H  0.91138109  0.69121849  0.81508933     0.15340
H2969       H  0.81393717  0.65876148  0.74209134     0.15360
C2970       C  0.86683019  0.67658788  0.70616532    -0.23590
H2971       H  0.88271094  0.67589011  0.86184755     0.05580
H2972       H  0.84955477  0.64529119  0.85324625     0.08800
H2973       H  0.84026160  0.68961556  0.85979362     0.08800
H2974       H  0.88883538  0.66190343  0.69813871     0.08790
H2975       H  0.86930579  0.70260151  0.69826073     0.08790
H2976       H  0.84428252  0.66447060  0.69351503     0.05560
C2977       C  0.62916993  0.80105301  0.73787477    -0.20240
C2978       C  0.61155806  0.78359511  0.76080872    -0.06810
C2979       C  0.61951066  0.78935188  0.79507730     0.14060
C2980       C  0.64448109  0.81271664  0.80548023    -0.20300
C2981       C  0.66595420  0.82543328  0.78253203    -0.06810
C2982       C  0.65675659  0.82181563  0.74834115     0.14050
C2983       C  0.67616775  0.83899457  0.72286113    -0.23640
H2984       H  0.62135179  0.79843346  0.71192725     0.15340
H2985       H  0.65108875  0.81627691  0.83173225     0.15360
C2986       C  0.60316025  0.76933508  0.82077993    -0.23590
H2987       H  0.66408987  0.83501420  0.69779685     0.05580
H2988       H  0.70157898  0.82883619  0.72116774     0.08800
H2989       H  0.67774260  0.86658263  0.72974247     0.08800
H2990       H  0.60533983  0.74191469  0.81376456     0.08790
H2991       H  0.57655499  0.77558125  0.82302961     0.08790
H2992       H  0.61511290  0.77466599  0.84576996     0.05560
C2993       C  0.50462247  0.76452255  0.93227122    -0.20240
C2994       C  0.98439736  0.73838046  0.94309866    -0.06810
C2995       C  0.97082528  0.71393671  0.91866273     0.14060
C2996       C  0.97764536  0.71639888  0.88499844    -0.20300
C2997       C  0.99654379  0.74329725  0.87406083    -0.06810
C2998       C  0.51025663  0.76770454  0.89824104     0.14050
C2999       C  0.53131656  0.79686154  0.88855190    -0.23640
H3000       H  0.51519973  0.78339728  0.95048761     0.15340
H3001       H  0.96693053  0.69755853  0.86674858     0.15360
C3002       C  0.94908752  0.68478052  0.92742247    -0.23590
H3003       H  0.54059249  0.81313055  0.91056933     0.05580
H3004       H  0.51648899  0.81281975  0.87259040     0.08800
H3005       H  0.55324588  0.78717922  0.87508751     0.08800
H3006       H  0.92432754  0.69408079  0.93474103     0.08790
H3007       H  0.96091262  0.67158613  0.94771996     0.08790
H3008       H  0.94472217  0.66588296  0.90596808     0.05560
C3009       C  0.48364105  0.76477402  0.59562784    -0.20240
C3010       C  0.49021958  0.73508429  0.61112289    -0.06810
C3011       C  0.99614301  0.70526199  0.59103432     0.14060
C3012       C  0.99684493  0.70616646  0.55629752    -0.20300
C3013       C  0.49237885  0.73623022  0.54064383    -0.06810
C3014       C  0.48531208  0.76595124  0.56089913     0.14050
C3015       C  0.48086080  0.79972119  0.54720839    -0.23640
H3016       H  0.47884293  0.78772596  0.61088902     0.15340
H3017       H  0.00182482  0.68322144  0.54143443     0.15360
C3018       C  0.00148368  0.67225693  0.60620493    -0.23590
H3019       H  0.45533297  0.80872978  0.55213647     0.05580
H3020       H  0.48470189  0.79884196  0.52032371     0.08800
H3021       H  0.49927402  0.81823313  0.55936798     0.08800
H3022       H  0.97967384  0.66613010  0.62111042     0.08790
H3023       H  0.02428434  0.67401724  0.62241482     0.08790
H3024       H  0.00457405  0.65111143  0.58699670     0.05560
C3025       C  0.59941060  0.96722396  0.70482289    -0.20240
C3026       C  0.61813645  0.47832530  0.73381317    -0.06810
C3027       C  0.60022880  0.49136585  0.76177678     0.14060
C3028       C  0.56581223  0.49633824  0.75879077    -0.20300
C3029       C  0.54707940  0.48627276  0.72986696    -0.06810
C3030       C  0.56418494  0.97086460  0.70261039     0.14050
C3031       C  0.54568609  0.95944174  0.67077505    -0.23640
H3032       H  0.61246984  0.95699891  0.68334570     0.15340
H3033       H  0.55321810  0.50855816  0.77962967     0.15360
C3034       C  0.61676022  0.50028120  0.79542885    -0.23590
H3035       H  0.56278988  0.94895110  0.65166482     0.05580
H3036       H  0.53258435  0.98084536  0.66066259     0.08800
H3037       H  0.52722980  0.93939422  0.67534144     0.08800
H3038       H  0.63219489  0.52369861  0.79522929     0.08790
H3039       H  0.63225942  0.47905835  0.80268040     0.08790
H3040       H  0.59816890  0.50503969  0.81500299     0.05560
C3041       C  0.89672282  0.51682429  0.71250197    -0.20240
C3042       C  0.87958475  0.01094144  0.74168413    -0.06810
C3043       C  0.89819104  0.99665185  0.76751401     0.14060
C3044       C  0.93167896  0.98794710  0.76292995    -0.20300
C3045       C  0.94860441  0.99306494  0.73377231    -0.06810
C3046       C  0.93053798  0.50778686  0.70807850     0.14050
C3047       C  0.94531907  0.51247315  0.67492413    -0.23640
H3048       H  0.88325651  0.52721757  0.69220636     0.15340
H3049       H  0.94456136  0.97593969  0.78239701     0.15360
C3050       C  0.88330045  0.98919619  0.80012986    -0.23590
H3051       H  0.92962638  0.49874801  0.65504279     0.05580
H3052       H  0.97084426  0.50264587  0.67286472     0.08800
H3053       H  0.94609929  0.53974038  0.67067175     0.08800
H3054       H  0.86331122  0.96951608  0.79596347     0.08790
H3055       H  0.87339221  0.01264927  0.81256929     0.08790
H3056       H  0.90198275  0.97941415  0.81752505     0.05560
C3057       C  0.96935286  0.92014562  0.70546607    -0.20240
C3058       C  0.98451535  0.94061163  0.73202617    -0.06810
C3059       C  0.49413999  0.92457301  0.76094514     0.14060
C3060       C  0.48909290  0.88953887  0.76190974    -0.20300
C3061       C  0.97509109  0.86883235  0.73507779    -0.06810
C3062       C  0.96494894  0.88469104  0.70634677     0.14050
C3063       C  0.94936964  0.86467099  0.67661670    -0.23640
H3064       H  0.96067259  0.93216178  0.68376801     0.15340
H3065       H  0.49675069  0.87804033  0.78423863     0.15360
C3066       C  0.50979130  0.94320213  0.79150689    -0.23590
H3067       H  0.94306853  0.88100365  0.65637262     0.05580
H3068       H  0.92597303  0.85212746  0.68372285     0.08800
H3069       H  0.96695714  0.84538599  0.66679935     0.08800
H3070       H  0.49472780  0.96458531  0.80068260     0.08790
H3071       H  0.53522599  0.95153060  0.78638766     0.08790
H3072       H  0.51234840  0.92674286  0.81235699     0.05560
C3073       C  0.52180334  0.55299952  0.70039076    -0.20240
C3074       C  0.51049351  0.53709044  0.72820002    -0.06810
C3075       C  0.00425191  0.55791364  0.75729607     0.14060
C3076       C  0.00890287  0.59300302  0.75760932    -0.20300
C3077       C  0.51994831  0.60918225  0.72988405    -0.06810
C3078       C  0.52621217  0.58854398  0.70066262     0.14050
C3079       C  0.53723652  0.60358025  0.66964761    -0.23640
H3080       H  0.52756569  0.53745717  0.67824580     0.15340
H3081       H  0.00389758  0.60786363  0.78047516     0.15360
C3082       C  0.99392618  0.54446070  0.78929815    -0.23590
H3083       H  0.54088877  0.58386441  0.64914857     0.05580
H3084       H  0.56127450  0.61756031  0.67461267     0.08800
H3085       H  0.51803370  0.62097798  0.66119088     0.08800
H3086       H  0.99255532  0.51682059  0.78788310     0.08790
H3087       H  0.96907427  0.55421710  0.79601725     0.08790
H3088       H  0.01233056  0.55281152  0.80939353     0.05560
loop_ 
_geom_bond_atom_site_label_1 
_geom_bond_atom_site_label_2 
_geom_bond_distance 
_geom_bond_site_symmetry_2 
_ccdc_geom_bond_type 
C1          C327   1.516       .  S
C1          C372   1.516   1_565  S
C1         C2318   1.394   1_455  D
C2          C343   1.526       .  S
C2          C356   1.520       .  S
C2         C2317   1.394       .  D
Zn3           O7   1.916       .  S
Zn3           O8   1.937       .  S
Zn3          O12   1.861       .  S
Zn3          O19   2.010       .  S
Zn4        O1551   1.973   1_455  S
Zn4           O9   2.056       .  S
Zn4          O11   2.131       .  S
Zn4          O15   2.072       .  S
Zn5           O7   1.972       .  S
Zn5          O10   2.077       .  S
Zn5          O13   2.057       .  S
Zn5          O16   2.124       .  S
Zn6        O1551   1.925   1_455  S
Zn6          O14   1.973   1_455  S
Zn6          O17   1.886       .  S
Zn6          O18   2.081       .  S
O7        Zn1548   1.973       .  S
O7        Zn1550   1.925       .  S
O8         C1564   1.261       .  A
O9           C21   1.280   1_455  A
O10          C22   1.287       .  A
O11          C20   1.282       .  A
O12          C22   1.258       .  A
O13        C1565   1.279       .  A
O14        C1567   1.268       .  A
O15          C24   1.285       .  A
O16          C23   1.283       .  A
O17          C24   1.263       .  A
O18        C1569   1.274       .  A
O19          C25   1.268       .  A
C20        O1552   1.261       .  A
C20         C375   1.513       .  S
C21        O1557   1.279       .  A
C21         C308   1.494       .  S
C22         C260   1.457       .  S
C23        O1558   1.268       .  A
C23         C359   1.514       .  S
C24         C276   1.454       .  S
C25        O1562   1.274       .  A
C25         C295   1.503       .  S
Zn26         O30   1.935       .  S
Zn26         O31   2.015       .  S
Zn26         O35   1.923       .  S
Zn26         O42   2.047       .  S
Zn27        O802   1.976       .  S
Zn27         O32   2.090       .  S
Zn27         O34   2.115       .  S
Zn27         O38   2.085       .  S
Zn28         O30   1.983       .  S
Zn28         O33   2.070       .  S
Zn28         O36   2.033       .  S
Zn28         O39   2.146       .  S
Zn29        O802   1.916       .  S
Zn29         O37   1.975       .  S
Zn29         O40   1.924       .  S
Zn29         O41   2.041       .  S
O30        Zn799   1.976       .  S
O30        Zn801   1.916       .  S
O31          C43   1.270       .  A
O32          C44   1.283       .  A
O33          C45   1.283       .  A
O34         C815   1.281       .  A
O35          C45   1.269       .  A
O36         C816   1.276       .  A
O37          C46   1.268   1_545  A
O38          C47   1.287       .  A
O39         C818   1.288       .  A
O40          C47   1.265       .  A
O41         C820   1.273   1_545  A
O42          C48   1.272       .  A
C43         O806   1.281       .  A
C43         C340   1.525       .  S
C44         O808   1.276   1_545  A
C44         C244   1.514       .  S
C45         C196   1.481       .  S
C46         O811   1.288       .  A
C46         C324   1.515       .  S
C47         C212   1.461       .  S
C48         O813   1.273       .  A
C48         C228   1.512       .  S
C49         C183   1.497   1_554  S
C49         C247   1.526       .  S
C49        C1208   1.382   1_544  D
C50         C164   1.496       .  S
C50         C231   1.519       .  S
C50        C1207   1.382       .  D
C51         C151   1.497   1_554  S
C51         C311   1.515   1_455  S
C51        C1982   1.378   1_454  D
C52         C135   1.500       .  S
C52         C292   1.522       .  S
C52        C1981   1.378       .  D
Zn53        O443   1.996       .  S
Zn53         O58   2.051       .  S
Zn53         O62   2.050       .  S
Zn53         O69   2.023       .  S
Zn54         O57   1.919   1_554  S
Zn54         O59   1.942       .  S
Zn54         O61   1.967   1_554  S
Zn54         O65   2.033       .  S
Zn55         O57   1.953   1_554  S
Zn55         O60   2.015       .  S
Zn55         O63   1.928       .  S
Zn55         O66   2.037       .  S
Zn56        O443   1.952       .  S
Zn56         O64   1.987       .  S
Zn56         O67   2.002       .  S
Zn56         O68   1.955       .  S
O57        Zn439   1.996       .  S
O57        Zn442   1.952       .  S
O58         C456   1.277       .  A
O59          C71   1.267       .  A
O60         C458   1.272   1_554  A
O61          C70   1.271       .  A
O62          C72   1.274       .  A
O63          C71   1.267       .  A
O64          C73   1.269       .  A
O65          C74   1.271   1_554  A
O66         C459   1.271   1_554  A
O67         C460   1.268       .  A
O68          C75   1.266       .  A
O69          C75   1.276       .  A
C70         O444   1.277       .  A
C70         C180   1.486       .  S
C71         C116   1.420       .  S
C72         O446   1.272       .  A
C72         C132   1.484       .  S
C73         O452   1.271       .  A
C73         C167   1.496       .  S
C74         O453   1.268       .  A
C74         C148   1.481       .  S
C75         C100   1.490       .  S
Zn76         O80   1.849       .  S
Zn76         O81   2.004       .  S
Zn76         O85   1.959       .  S
Zn76         O92   1.975       .  S
Zn77         O80   1.797       .  S
Zn77         O82   2.055       .  S
Zn77         O84   1.916       .  S
Zn77         O88   1.875       .  S
Zn78         O80   1.842       .  S
Zn78         O83   1.894       .  S
Zn78         O86   1.961       .  S
Zn78         O89   1.953       .  S
Zn79         O80   1.876       .  S
Zn79         O87   2.008       .  S
Zn79         O90   2.062       .  S
Zn79         O91   2.023       .  S
O81          C93   1.272       .  A
O82          C94   1.274       .  A
O83          C95   1.261       .  A
O84          C93   1.270       .  A
O85          C95   1.268       .  A
O86          C94   1.261       .  A
O87          C96   1.284       .  A
O88          C97   1.266       .  A
O89          C96   1.269       .  A
O90          C97   1.278       .  A
O91          C98   1.273       .  A
O92          C98   1.278       .  A
C93         C279   1.465       .  S
C94         C215   1.476       .  S
C95         C119   1.420       .  S
C96         C263   1.463       .  S
C97         C103   1.492       .  S
C98         C199   1.464       .  S
C99         C100   1.420       .  A
C99         C104   1.412       .  A
C99         H106   1.079       .  S
C100        C101   1.437       .  A
C101        C102   1.421       .  A
C101        C108   1.514       .  S
C102        C103   1.413       .  A
C102        H107   1.084       .  S
C103        C104   1.395       .  A
C104        C105   1.498       .  S
C105        H109   1.107       .  S
C105        H110   1.111       .  S
C105        H111   1.111       .  S
C108        H112   1.103       .  S
C108        H113   1.110       .  S
C108        H114   1.111       .  S
C115        C116   1.394       .  A
C115        C120   1.384       .  A
C115        H122   1.085       .  S
C116        C117   1.404       .  A
C117        C118   1.386       .  A
C117        C124   1.508       .  S
C118        C119   1.394       .  A
C118        H123   1.083       .  S
C119        C120   1.406       .  A
C120        C121   1.509       .  S
C121        H125   1.111       .  S
C121        H126   1.110       .  S
C121        H127   1.109       .  S
C124        H128   1.110       .  S
C124        H129   1.111       .  S
C124        H130   1.111       .  S
C131        C132   1.396       .  A
C131        C136   1.400       .  A
C131        H138   1.080       .  S
C132        C519   1.413       .  A
C133        C134   1.413   1_554  A
C133        C518   1.413   1_554  A
C133        C140   1.505       .  S
C134        C521   1.410       .  A
C134        H139   1.084   1_556  S
C135        C136   1.418       .  A
C135        C520   1.410       .  A
C136        C137   1.507       .  S
C137        H141   1.109       .  S
C137        H142   1.111       .  S
C137        H143   1.100       .  S
C140        H144   1.110   1_554  S
C140        H145   1.110       .  S
C140        H146   1.111       .  S
C147        C148   1.402       .  A
C147        C152   1.408       .  A
C147        H154   1.084       .  S
C148        C535   1.414   1_556  A
C149        C150   1.403       .  A
C149        C534   1.414       .  A
C149        C156   1.508       .  S
C150        C537   1.404       .  A
C150        H155   1.081       .  S
C151        C152   1.418       .  A
C151        C536   1.404   1_556  A
C152        C153   1.505       .  S
C153        H157   1.111       .  S
C153        H158   1.105       .  S
C153        H159   1.104       .  S
C156        H160   1.110       .  S
C156        H161   1.111       .  S
C156        H162   1.111       .  S
C163        C168   1.412       .  A
C163        C550   1.406   1_554  A
C163        H170   1.084       .  S
C164        C165   1.416       .  A
C164        C549   1.406       .  A
C165        C166   1.394       .  A
C165        C172   1.511       .  S
C166        C167   1.406       .  A
C166        H171   1.082       .  S
C167        C554   1.420       .  A
C168        C553   1.420   1_554  A
C168        C169   1.506       .  S
C169        H173   1.111       .  S
C169        H174   1.110       .  S
C169        H175   1.110       .  S
C172        H176   1.107       .  S
C172        H177   1.105       .  S
C172        H178   1.111       .  S
C179        C180   1.403       .  A
C179        C184   1.393   1_556  A
C179        H186   1.085   1_556  S
C180        C181   1.416       .  A
C181        C182   1.410       .  A
C181        C188   1.506       .  S
C182        C183   1.408       .  A
C182        H187   1.084       .  S
C183        C184   1.415   1_556  A
C184        C185   1.506       .  S
C185        H189   1.111       .  S
C185        H190   1.110       .  S
C185        H577   1.097       .  S
C188        H192   1.110       .  S
C188        H194   1.111       .  S
C188        H579   1.110       .  S
H191        C571   1.097       .  S
H193        C574   1.110       .  S
C195        C196   1.416       .  A
C195        C200   1.395       .  A
C195        H202   1.085       .  S
C196        C197   1.411       .  A
C197        C198   1.411       .  A
C197        C204   1.504       .  S
C198        C199   1.409       .  A
C198        H203   1.082       .  S
C199        C200   1.398       .  A
C200        C201   1.501       .  S
C201        H205   1.108       .  S
C201        H206   1.111       .  S
C201        H207   1.111       .  S
C204        H208   1.110       .  S
C204        H209   1.110       .  S
C204        H210   1.110       .  S
C211        C212   1.399       .  A
C211        C216   1.398       .  A
C211        H218   1.085       .  S
C212        C213   1.411       .  A
C213        C214   1.405       .  A
C213        C220   1.507       .  S
C214        C215   1.405       .  A
C214        H219   1.084       .  S
C215        C216   1.417       .  A
C216        C217   1.508       .  S
C217        H221   1.111       .  S
C217        H222   1.110       .  S
C217        H223   1.110       .  S
C220        H224   1.110       .  S
C220        H225   1.110       .  S
C220        H226   1.109       .  S
C227        C232   1.410       .  A
C227       C1000   1.411   1_545  A
C227        H234   1.084       .  S
C228        C229   1.423       .  A
C228        C999   1.411       .  A
C229        C230   1.412       .  A
C229        C236   1.508       .  S
C230        C231   1.407       .  A
C230        H235   1.084       .  S
C231       C1004   1.420       .  A
C232       C1003   1.420   1_545  A
C232        C233   1.505       .  S
C233        H237   1.111       .  S
C233        H238   1.110       .  S
C233        H239   1.103       .  S
C236        H240   1.110       .  S
C236        H241   1.110       .  S
C236        H242   1.111       .  S
C243        C244   1.410   1_565  A
C243        C248   1.412       .  A
C243        H250   1.084       .  S
C244       C1017   1.419       .  A
C245        C246   1.414       .  A
C245       C1016   1.419       .  A
C245        C252   1.507       .  S
C246       C1019   1.411       .  A
C246        H251   1.084       .  S
C247        C248   1.424   1_545  A
C247       C1018   1.411       .  A
C248        C249   1.504       .  S
C249        H253   1.110       .  S
C249        H254   1.099       .  S
C249        H255   1.111       .  S
C252        H256   1.110       .  S
C252        H257   1.110       .  S
C252        H258   1.111       .  S
C259        C260   1.415       .  A
C259        C264   1.392       .  A
C259        H266   1.084       .  S
C260        C261   1.409       .  A
C261        C262   1.404       .  A
C261        C268   1.504       .  S
C262        C263   1.406       .  A
C262        H267   1.084       .  S
C263        C264   1.398       .  A
C264        C265   1.504       .  S
C265        H269   1.111       .  S
C265        H270   1.108       .  S
C265        H271   1.110       .  S
C268        H272   1.110       .  S
C268        H273   1.109       .  S
C268        H274   1.111       .  S
C275        C276   1.400       .  A
C275        C280   1.404       .  A
C275        H282   1.084       .  S
C276        C277   1.414       .  A
C277        C278   1.388       .  A
C277        C284   1.514       .  S
C278        C279   1.400       .  A
C278        H283   1.086       .  S
C279        C280   1.418       .  A
C280        C281   1.506       .  S
C281        H285   1.111       .  S
C281        H286   1.106       .  S
C281        H287   1.110       .  S
C284        H288   1.110       .  S
C284        H289   1.106       .  S
C284        H290   1.111       .  S
C291        C296   1.416       .  A
C291       C1836   1.412   1_455  A
C291        H298   1.082       .  S
C292        C293   1.421       .  A
C292       C1835   1.412       .  A
C293        C294   1.407       .  A
C293        C300   1.507       .  S
C294        C295   1.405       .  A
C294        H299   1.084       .  S
C295       C1840   1.417       .  A
C296       C1839   1.417   1_455  A
C296        C297   1.504       .  S
C297        H301   1.111       .  S
C297        H302   1.109       .  S
C297        H303   1.108       .  S
C300        H304   1.107       .  S
C300        H305   1.109       .  S
C300        H306   1.111       .  S
C307        C308   1.405       .  A
C307        C312   1.413       .  A
C307        H314   1.085       .  S
C308       C1853   1.412       .  A
C309        C310   1.410       .  A
C309       C1852   1.412       .  A
C309        C316   1.507       .  S
C310       C1855   1.407       .  A
C310        H315   1.078       .  S
C311        C312   1.422       .  A
C311       C1854   1.407       .  A
C312        C313   1.503       .  S
C313        H317   1.110       .  S
C313        H318   1.101       .  S
C313        H319   1.110       .  S
C316        H320   1.111       .  S
C316        H321   1.110       .  S
C316        H322   1.111       .  S
C323        C328   1.426       .  A
C323       C1096   1.412       .  A
C323        H330   1.083       .  S
C324        C325   1.426       .  A
C324       C1095   1.412       .  A
C325        C326   1.403       .  A
C325        C332   1.512   1_565  S
C326        C327   1.401       .  A
C326        H331   1.082   1_565  S
C327       C1100   1.420       .  A
C328       C1099   1.420       .  A
C328        C329   1.504       .  S
C329        H333   1.110       .  S
C329        H334   1.108       .  S
C329        H335   1.107       .  S
C332        H336   1.109       .  S
C332        H337   1.111   1_545  S
C332        H338   1.111       .  S
C339        C344   1.424       .  A
C339       C1112   1.415       .  A
C339        H346   1.084       .  S
C340        C341   1.428       .  A
C340       C1111   1.415       .  A
C341        C342   1.408       .  A
C341        C348   1.511       .  S
C342        C343   1.404       .  A
C342        H347   1.078       .  S
C343       C1116   1.421       .  A
C344       C1115   1.421   1_545  A
C344        C345   1.505       .  S
C345        H349   1.110   1_545  S
C345        H350   1.107       .  S
C345        H351   1.110       .  S
C348        H352   1.110       .  S
C348        H353   1.110       .  S
C348        H354   1.111       .  S
C355        C356   1.413       .  A
C355        C360   1.420       .  A
C355        H362   1.084       .  S
C356       C1901   1.423       .  A
C357        C358   1.407       .  A
C357       C1900   1.423       .  A
C357        C364   1.507   1_655  S
C358       C1903   1.408       .  A
C358        H363   1.084       .  S
C359        C360   1.419       .  A
C359       C1902   1.408       .  A
C360        C361   1.504       .  S
C361        H365   1.111       .  S
C361        H366   1.110       .  S
C361        H367   1.110       .  S
C364        H368   1.099   1_455  S
C364        H369   1.098       .  S
C364        H370   1.111       .  S
C371        C372   1.414       .  A
C371        C376   1.419       .  A
C371        H378   1.081       .  S
C372       C1917   1.416       .  A
C373        C374   1.402       .  A
C373       C1916   1.416       .  A
C373        C380   1.504       .  S
C374       C1919   1.413       .  A
C374        H379   1.084       .  S
C375        C376   1.417       .  A
C375       C1918   1.413       .  A
C376        C377   1.505       .  S
C377        H381   1.111       .  S
C377        H382   1.110       .  S
C377        H383   1.110       .  S
C380        H384   1.096       .  S
C380        H385   1.111       .  S
C380        H386   1.111       .  S
C387        C713   1.516       .  S
C387        C758   1.516   1_565  S
C387       C2704   1.394   1_455  D
C388        C729   1.526       .  S
C388        C742   1.520       .  S
C388       C2703   1.394       .  D
Zn389       O393   1.916       .  S
Zn389       O394   1.937       .  S
Zn389       O398   1.861       .  S
Zn389       O405   2.010       .  S
Zn390      O1937   1.973   1_455  S
Zn390       O395   2.056       .  S
Zn390       O397   2.131       .  S
Zn390       O401   2.072       .  S
Zn391       O393   1.972       .  S
Zn391       O396   2.077       .  S
Zn391       O399   2.057       .  S
Zn391       O402   2.124       .  S
Zn392      O1937   1.924   1_455  S
Zn392       O400   1.973   1_455  S
Zn392       O403   1.886       .  S
Zn392       O404   2.081       .  S
O393      Zn1934   1.973       .  S
O393      Zn1936   1.924       .  S
O394       C1950   1.261       .  A
O395        C407   1.280   1_455  A
O396        C408   1.287       .  A
O397        C406   1.282       .  A
O398        C408   1.258       .  A
O399       C1951   1.279       .  A
O400       C1953   1.268       .  A
O401        C410   1.285       .  A
O402        C409   1.283       .  A
O403        C410   1.263       .  A
O404       C1955   1.274       .  A
O405        C411   1.268       .  A
C406       O1938   1.261       .  A
C406        C761   1.513       .  S
C407       O1943   1.279       .  A
C407        C694   1.494       .  S
C408        C646   1.457       .  S
C409       O1944   1.268       .  A
C409        C745   1.514       .  S
C410        C662   1.454       .  S
C411       O1948   1.274       .  A
C411        C681   1.503       .  S
Zn412       O416   1.935       .  S
Zn412       O417   2.015       .  S
Zn412       O421   1.923       .  S
Zn412       O428   2.047       .  S
Zn413      O1188   1.976       .  S
Zn413       O418   2.090       .  S
Zn413       O420   2.115       .  S
Zn413       O424   2.085       .  S
Zn414       O416   1.983       .  S
Zn414       O419   2.070       .  S
Zn414       O422   2.033       .  S
Zn414       O425   2.146       .  S
Zn415      O1188   1.916       .  S
Zn415       O423   1.975       .  S
Zn415       O426   1.924       .  S
Zn415       O427   2.041       .  S
O416      Zn1185   1.976       .  S
O416      Zn1187   1.916       .  S
O417        C429   1.270       .  A
O418        C430   1.283       .  A
O419        C431   1.283       .  A
O420       C1201   1.281       .  A
O421        C431   1.269       .  A
O422       C1202   1.276       .  A
O423        C432   1.268   1_545  A
O424        C433   1.287       .  A
O425       C1204   1.288       .  A
O426        C433   1.265       .  A
O427       C1206   1.273   1_545  A
O428        C434   1.272       .  A
C429       O1192   1.281       .  A
C429        C726   1.525       .  S
C430       O1194   1.276   1_545  A
C430        C630   1.514       .  S
C431        C582   1.481       .  S
C432       O1197   1.288       .  A
C432        C710   1.515       .  S
C433        C598   1.461       .  S
C434       O1199   1.273       .  A
C434        C614   1.512       .  S
C435        C569   1.497       .  S
C435        C633   1.526       .  S
C435        C822   1.382   1_545  D
C436        C550   1.496       .  S
C436        C617   1.519       .  S
C436        C821   1.382   1_556  D
C437        C537   1.497       .  S
C437        C697   1.515   1_455  S
C437       C1596   1.378   1_455  D
C438        C521   1.500       .  S
C438        C678   1.522       .  S
C438       C1595   1.378   1_556  D
Zn439       O444   2.051       .  S
Zn439       O448   2.050       .  S
Zn439       O455   2.023       .  S
Zn440       O443   1.919       .  S
Zn440       O445   1.942       .  S
Zn440       O447   1.967       .  S
Zn440       O451   2.033       .  S
Zn441       O443   1.953       .  S
Zn441       O446   2.015       .  S
Zn441       O449   1.928       .  S
Zn441       O452   2.037       .  S
Zn442       O450   1.986       .  S
Zn442       O453   2.002       .  S
Zn442       O454   1.955       .  S
O445        C457   1.267       .  A
O447        C456   1.271       .  A
O448        C458   1.274       .  A
O449        C457   1.267       .  A
O450        C459   1.269       .  A
O451        C460   1.271       .  A
O454        C461   1.266       .  A
O455        C461   1.276       .  A
C456        C566   1.486       .  S
C457        C502   1.420       .  S
C458        C518   1.484       .  S
C459        C553   1.496       .  S
C460        C534   1.481       .  S
C461        C486   1.490       .  S
Zn462       O466   1.849       .  S
Zn462       O467   2.004       .  S
Zn462       O471   1.959       .  S
Zn462       O478   1.975       .  S
Zn463       O466   1.797       .  S
Zn463       O468   2.055       .  S
Zn463       O470   1.916       .  S
Zn463       O474   1.875       .  S
Zn464       O466   1.842       .  S
Zn464       O469   1.894       .  S
Zn464       O472   1.961       .  S
Zn464       O475   1.953       .  S
Zn465       O466   1.876       .  S
Zn465       O473   2.007       .  S
Zn465       O476   2.062       .  S
Zn465       O477   2.023       .  S
O467        C479   1.272       .  A
O468        C480   1.274       .  A
O469        C481   1.261       .  A
O470        C479   1.270       .  A
O471        C481   1.268       .  A
O472        C480   1.261       .  A
O473        C482   1.284       .  A
O474        C483   1.266       .  A
O475        C482   1.269       .  A
O476        C483   1.278       .  A
O477        C484   1.273       .  A
O478        C484   1.278       .  A
C479        C665   1.465       .  S
C480        C601   1.476       .  S
C481        C505   1.420       .  S
C482        C649   1.463       .  S
C483        C489   1.492       .  S
C484        C585   1.464       .  S
C485        C486   1.420       .  A
C485        C490   1.412       .  A
C485        H492   1.079       .  S
C486        C487   1.437       .  A
C487        C488   1.421       .  A
C487        C494   1.514       .  S
C488        C489   1.413       .  A
C488        H493   1.084       .  S
C489        C490   1.395       .  A
C490        C491   1.498       .  S
C491        H495   1.107       .  S
C491        H496   1.111       .  S
C491        H497   1.111       .  S
C494        H498   1.103       .  S
C494        H499   1.110       .  S
C494        H500   1.111       .  S
C501        C502   1.394       .  A
C501        C506   1.384       .  A
C501        H508   1.085       .  S
C502        C503   1.404       .  A
C503        C504   1.386       .  A
C503        C510   1.508       .  S
C504        C505   1.394       .  A
C504        H509   1.083       .  S
C505        C506   1.406       .  A
C506        C507   1.509       .  S
C507        H511   1.111       .  S
C507        H512   1.110       .  S
C507        H513   1.109       .  S
C510        H514   1.110       .  S
C510        H515   1.111       .  S
C510        H516   1.111       .  S
C517        C518   1.396       .  A
C517        C522   1.400       .  A
C517        H524   1.080       .  S
C519        C520   1.412       .  A
C519        C526   1.505       .  S
C520        H525   1.084       .  S
C521        C522   1.418       .  A
C522        C523   1.507       .  S
C523        H527   1.109       .  S
C523        H528   1.111       .  S
C523        H529   1.100       .  S
C526        H530   1.110       .  S
C526        H531   1.110       .  S
C526        H532   1.111       .  S
C533        C534   1.402       .  A
C533        C538   1.408       .  A
C533        H540   1.084       .  S
C535        C536   1.403       .  A
C535        C542   1.508       .  S
C536        H541   1.081       .  S
C537        C538   1.418       .  A
C538        C539   1.505       .  S
C539        H543   1.111       .  S
C539        H544   1.105       .  S
C539        H545   1.104       .  S
C542        H546   1.110   1_554  S
C542        H547   1.111       .  S
C542        H548   1.111       .  S
C549        C554   1.412       .  A
C549        H556   1.084       .  S
C550        C551   1.416       .  A
C551        C552   1.394       .  A
C551        C558   1.511       .  S
C552        C553   1.406       .  A
C552        H557   1.082       .  S
C554        C555   1.506       .  S
C555        H559   1.111       .  S
C555        H560   1.110       .  S
C555        H561   1.110       .  S
C558        H562   1.107       .  S
C558        H563   1.105       .  S
C558        H564   1.111       .  S
C565        C566   1.403       .  A
C565        C570   1.393       .  A
C565        H572   1.085       .  S
C566        C567   1.416       .  A
C567        C568   1.410       .  A
C567        C574   1.506       .  S
C568        C569   1.408       .  A
C568        H573   1.084       .  S
C569        C570   1.415       .  A
C570        C571   1.506       .  S
C571        H575   1.111       .  S
C571        H576   1.110       .  S
C574        H578   1.110       .  S
C574        H580   1.111       .  S
C581        C582   1.416       .  A
C581        C586   1.395       .  A
C581        H588   1.085       .  S
C582        C583   1.411       .  A
C583        C584   1.411       .  A
C583        C590   1.504       .  S
C584        C585   1.409       .  A
C584        H589   1.082       .  S
C585        C586   1.398       .  A
C586        C587   1.501       .  S
C587        H591   1.108       .  S
C587        H592   1.111       .  S
C587        H593   1.111       .  S
C590        H594   1.110       .  S
C590        H595   1.110       .  S
C590        H596   1.110       .  S
C597        C598   1.399       .  A
C597        C602   1.398       .  A
C597        H604   1.085       .  S
C598        C599   1.411       .  A
C599        C600   1.405       .  A
C599        C606   1.507       .  S
C600        C601   1.405       .  A
C600        H605   1.084       .  S
C601        C602   1.417       .  A
C602        C603   1.508       .  S
C603        H607   1.111       .  S
C603        H608   1.110       .  S
C603        H609   1.110       .  S
C606        H610   1.110       .  S
C606        H611   1.110       .  S
C606        H612   1.109       .  S
C613       C1386   1.411   1_545  A
C613        C618   1.410       .  A
C613        H620   1.084       .  S
C614       C1385   1.411       .  A
C614        C615   1.423       .  A
C615        C616   1.412       .  A
C615        C622   1.508       .  S
C616        C617   1.407       .  A
C616        H621   1.084       .  S
C617       C1390   1.420       .  A
C618       C1389   1.420   1_545  A
C618        C619   1.505       .  S
C619        H623   1.111       .  S
C619        H624   1.110       .  S
C619        H625   1.103       .  S
C622        H626   1.110       .  S
C622        H627   1.110       .  S
C622        H628   1.111       .  S
C629        C630   1.410   1_565  A
C629        C634   1.412       .  A
C629        H636   1.084       .  S
C630       C1403   1.419       .  A
C631       C1402   1.419       .  A
C631        C632   1.414       .  A
C631        C638   1.507       .  S
C632       C1405   1.411       .  A
C632        H637   1.084       .  S
C633       C1404   1.411       .  A
C633        C634   1.424   1_545  A
C634        C635   1.504       .  S
C635        H639   1.110       .  S
C635        H640   1.099       .  S
C635        H641   1.111       .  S
C638        H642   1.110       .  S
C638        H643   1.110       .  S
C638        H644   1.111       .  S
C645        C646   1.415       .  A
C645        C650   1.392       .  A
C645        H652   1.084       .  S
C646        C647   1.409       .  A
C647        C648   1.404       .  A
C647        C654   1.504       .  S
C648        C649   1.406       .  A
C648        H653   1.084       .  S
C649        C650   1.398       .  A
C650        C651   1.504       .  S
C651        H655   1.111       .  S
C651        H656   1.108       .  S
C651        H657   1.110       .  S
C654        H658   1.110       .  S
C654        H659   1.109       .  S
C654        H660   1.111       .  S
C661        C662   1.400       .  A
C661        C666   1.404       .  A
C661        H668   1.084       .  S
C662        C663   1.414       .  A
C663        C664   1.388       .  A
C663        C670   1.514       .  S
C664        C665   1.400       .  A
C664        H669   1.086       .  S
C665        C666   1.418       .  A
C666        C667   1.506       .  S
C667        H671   1.111       .  S
C667        H672   1.106       .  S
C667        H673   1.110       .  S
C670        H674   1.110       .  S
C670        H675   1.106       .  S
C670        H676   1.111       .  S
C677       C2222   1.412   1_455  A
C677        C682   1.416       .  A
C677        H684   1.082       .  S
C678       C2221   1.412       .  A
C678        C679   1.421       .  A
C679        C680   1.407       .  A
C679        C686   1.507       .  S
C680        C681   1.405       .  A
C680        H685   1.084       .  S
C681       C2226   1.417       .  A
C682       C2225   1.417   1_455  A
C682        C683   1.504       .  S
C683        H687   1.111       .  S
C683        H688   1.109       .  S
C683        H689   1.108       .  S
C686        H690   1.107       .  S
C686        H691   1.109       .  S
C686        H692   1.111       .  S
C693        C694   1.405       .  A
C693        C698   1.413       .  A
C693        H700   1.085       .  S
C694       C2239   1.412       .  A
C695       C2238   1.412       .  A
C695        C696   1.410       .  A
C695        C702   1.507       .  S
C696       C2241   1.407       .  A
C696        H701   1.078       .  S
C697       C2240   1.407       .  A
C697        C698   1.422       .  A
C698        C699   1.503       .  S
C699        H703   1.110       .  S
C699        H704   1.101       .  S
C699        H705   1.110       .  S
C702        H706   1.111       .  S
C702        H707   1.110       .  S
C702        H708   1.111       .  S
C709       C1482   1.412       .  A
C709        C714   1.426       .  A
C709        H716   1.083       .  S
C710       C1481   1.412       .  A
C710        C711   1.426       .  A
C711        C712   1.403       .  A
C711        C718   1.512   1_565  S
C712        C713   1.401       .  A
C712        H717   1.082   1_565  S
C713       C1486   1.420       .  A
C714       C1485   1.420       .  A
C714        C715   1.504       .  S
C715        H719   1.110       .  S
C715        H720   1.108       .  S
C715        H721   1.107       .  S
C718        H722   1.109       .  S
C718        H723   1.111   1_545  S
C718        H724   1.111       .  S
C725       C1498   1.415       .  A
C725        C730   1.424       .  A
C725        H732   1.084       .  S
C726       C1497   1.415       .  A
C726        C727   1.428       .  A
C727        C728   1.408       .  A
C727        C734   1.511       .  S
C728        C729   1.404       .  A
C728        H733   1.078       .  S
C729       C1502   1.421       .  A
C730       C1501   1.421   1_545  A
C730        C731   1.505       .  S
C731        H735   1.110   1_545  S
C731        H736   1.107       .  S
C731        H737   1.110       .  S
C734        H738   1.110       .  S
C734        H739   1.110       .  S
C734        H740   1.111       .  S
C741        C742   1.413       .  A
C741        C746   1.420       .  A
C741        H748   1.084       .  S
C742       C2287   1.423       .  A
C743       C2286   1.423       .  A
C743        C744   1.407       .  A
C743        C750   1.507   1_655  S
C744       C2289   1.408       .  A
C744        H749   1.084       .  S
C745       C2288   1.408       .  A
C745        C746   1.419       .  A
C746        C747   1.504       .  S
C747        H751   1.111       .  S
C747        H752   1.110       .  S
C747        H753   1.110       .  S
C750        H754   1.099   1_455  S
C750        H755   1.098       .  S
C750        H756   1.111       .  S
C757        C758   1.414       .  A
C757        C762   1.419       .  A
C757        H764   1.081       .  S
C758       C2303   1.416       .  A
C759       C2302   1.416       .  A
C759        C760   1.402       .  A
C759        C766   1.504       .  S
C760       C2305   1.413       .  A
C760        H765   1.084       .  S
C761       C2304   1.413       .  A
C761        C762   1.417       .  A
C762        C763   1.505       .  S
C763        H767   1.111       .  S
C763        H768   1.110       .  S
C763        H769   1.110       .  S
C766        H770   1.096       .  S
C766        H771   1.111       .  S
C766        H772   1.111       .  S
C773       C1099   1.516       .  S
C773       C1144   1.516       .  S
C773       C1546   1.394   1_455  D
C774       C1115   1.526       .  S
C774       C1128   1.520       .  S
C774       C1545   1.394       .  D
Zn775       O779   1.916       .  S
Zn775       O780   1.937       .  S
Zn775       O784   1.861       .  S
Zn775       O791   2.010       .  S
Zn776      O2323   1.973   1_455  S
Zn776       O781   2.056       .  S
Zn776       O783   2.131       .  S
Zn776       O787   2.072       .  S
Zn777       O779   1.972       .  S
Zn777       O782   2.077       .  S
Zn777       O785   2.057       .  S
Zn777       O788   2.124       .  S
Zn778      O2323   1.925   1_455  S
Zn778       O786   1.973   1_455  S
Zn778       O789   1.886       .  S
Zn778       O790   2.081       .  S
O779      Zn2320   1.973       .  S
O779      Zn2322   1.925       .  S
O780       C2336   1.261       .  A
O781        C793   1.280   1_455  A
O782        C794   1.287       .  A
O783        C792   1.282       .  A
O784        C794   1.258       .  A
O785       C2337   1.279       .  A
O786       C2339   1.268       .  A
O787        C796   1.285       .  A
O788        C795   1.283       .  A
O789        C796   1.263       .  A
O790       C2341   1.274       .  A
O791        C797   1.268       .  A
C792       O2324   1.261       .  A
C792       C1147   1.513       .  S
C793       O2329   1.279       .  A
C793       C1080   1.494       .  S
C794       C1032   1.457       .  S
C795       O2330   1.268       .  A
C795       C1131   1.514       .  S
C796       C1048   1.454       .  S
C797       O2334   1.274       .  A
C797       C1067   1.503       .  S
Zn798       O802   1.935   1_565  S
Zn798       O803   2.015   1_565  S
Zn798       O807   1.923       .  S
Zn798       O814   2.047       .  S
Zn799       O804   2.090       .  S
Zn799       O806   2.115       .  S
Zn799       O810   2.085       .  S
Zn800       O802   1.983   1_565  S
Zn800       O805   2.070       .  S
Zn800       O808   2.033       .  S
Zn800       O811   2.146       .  S
Zn801       O809   1.975       .  S
Zn801       O812   1.924       .  S
Zn801       O813   2.041       .  S
O803        C815   1.270       .  A
O804        C816   1.283       .  A
O805        C817   1.283       .  A
O807        C817   1.269       .  A
O809        C818   1.268       .  A
O810        C819   1.287       .  A
O812        C819   1.265       .  A
O814        C820   1.272       .  A
C815       C1112   1.525       .  S
C816       C1016   1.514       .  S
C817        C968   1.481       .  S
C818       C1096   1.515       .  S
C819        C984   1.461       .  S
C820       C1000   1.512       .  S
C821        C955   1.497   1_554  S
C821       C1019   1.526       .  S
C822        C936   1.496       .  S
C822       C1003   1.519       .  S
C823        C923   1.497   1_554  S
C823       C1083   1.515   1_455  S
C823       C2754   1.378   1_454  D
C824        C907   1.500       .  S
C824       C1064   1.522       .  S
C824       C2753   1.378       .  D
Zn825      O1215   1.996       .  S
Zn825       O830   2.051       .  S
Zn825       O834   2.050       .  S
Zn825       O841   2.023       .  S
Zn826       O829   1.919   1_554  S
Zn826       O831   1.942       .  S
Zn826       O833   1.967   1_554  S
Zn826       O837   2.033       .  S
Zn827       O829   1.953   1_554  S
Zn827       O832   2.015       .  S
Zn827       O835   1.928       .  S
Zn827       O838   2.037       .  S
Zn828      O1215   1.952       .  S
Zn828       O836   1.987       .  S
Zn828       O839   2.002       .  S
Zn828       O840   1.955       .  S
O829      Zn1211   1.996       .  S
O829      Zn1214   1.952       .  S
O830       C1228   1.277       .  A
O831        C843   1.267       .  A
O832       C1230   1.272   1_554  A
O833        C842   1.271       .  A
O834        C844   1.274       .  A
O835        C843   1.267       .  A
O836        C845   1.269       .  A
O837        C846   1.271   1_554  A
O838       C1231   1.271   1_554  A
O839       C1232   1.268       .  A
O840        C847   1.266       .  A
O841        C847   1.276       .  A
C842       O1216   1.277       .  A
C842        C952   1.486       .  S
C843        C888   1.420       .  S
C844       O1218   1.272       .  A
C844        C904   1.484       .  S
C845       O1224   1.271       .  A
C845        C939   1.496       .  S
C846       O1225   1.268       .  A
C846        C920   1.481       .  S
C847        C872   1.490       .  S
Zn848       O852   1.849       .  S
Zn848       O853   2.004       .  S
Zn848       O857   1.959       .  S
Zn848       O864   1.975       .  S
Zn849       O852   1.797       .  S
Zn849       O854   2.055       .  S
Zn849       O856   1.916       .  S
Zn849       O860   1.875       .  S
Zn850       O852   1.842       .  S
Zn850       O855   1.894       .  S
Zn850       O858   1.961       .  S
Zn850       O861   1.953       .  S
Zn851       O852   1.876       .  S
Zn851       O859   2.008       .  S
Zn851       O862   2.062       .  S
Zn851       O863   2.023       .  S
O853        C865   1.272       .  A
O854        C866   1.274       .  A
O855        C867   1.261       .  A
O856        C865   1.270       .  A
O857        C867   1.268       .  A
O858        C866   1.261       .  A
O859        C868   1.284       .  A
O860        C869   1.266       .  A
O861        C868   1.269       .  A
O862        C869   1.278       .  A
O863        C870   1.273       .  A
O864        C870   1.278       .  A
C865       C1051   1.465       .  S
C866        C987   1.476       .  S
C867        C891   1.420       .  S
C868       C1035   1.463       .  S
C869        C875   1.492       .  S
C870        C971   1.464       .  S
C871        C872   1.420       .  A
C871        C876   1.412       .  A
C871        H878   1.079       .  S
C872        C873   1.437       .  A
C873        C874   1.421       .  A
C873        C880   1.514       .  S
C874        C875   1.413       .  A
C874        H879   1.084       .  S
C875        C876   1.395       .  A
C876        C877   1.498       .  S
C877        H881   1.107       .  S
C877        H882   1.111       .  S
C877        H883   1.111       .  S
C880        H884   1.103       .  S
C880        H885   1.110       .  S
C880        H886   1.111       .  S
C887        C888   1.394       .  A
C887        C892   1.384       .  A
C887        H894   1.085       .  S
C888        C889   1.404       .  A
C889        C890   1.385       .  A
C889        C896   1.508       .  S
C890        C891   1.394       .  A
C890        H895   1.083       .  S
C891        C892   1.406       .  A
C892        C893   1.509       .  S
C893        H897   1.111       .  S
C893        H898   1.110       .  S
C893        H899   1.109       .  S
C896        H900   1.110       .  S
C896        H901   1.111       .  S
C896        H902   1.111       .  S
C903        C904   1.396       .  A
C903        C908   1.400       .  A
C903        H910   1.080       .  S
C904       C1291   1.413       .  A
C905       C1290   1.413   1_554  A
C905        C906   1.413   1_554  A
C905        C912   1.505       .  S
C906       C1293   1.410       .  A
C906        H911   1.084   1_556  S
C907       C1292   1.410       .  A
C907        C908   1.418       .  A
C908        C909   1.507       .  S
C909        H913   1.109       .  S
C909        H914   1.111       .  S
C909        H915   1.100       .  S
C912        H916   1.110   1_554  S
C912        H917   1.110       .  S
C912        H918   1.111       .  S
C919        C920   1.402       .  A
C919        C924   1.408       .  A
C919        H926   1.084       .  S
C920       C1307   1.414   1_556  A
C921       C1306   1.414       .  A
C921        C922   1.403       .  A
C921        C928   1.508       .  S
C922       C1309   1.404       .  A
C922        H927   1.081       .  S
C923       C1308   1.404   1_556  A
C923        C924   1.418       .  A
C924        C925   1.505       .  S
C925        H929   1.111       .  S
C925        H930   1.105       .  S
C925        H931   1.104       .  S
C928        H932   1.110       .  S
C928        H933   1.111       .  S
C928        H934   1.111       .  S
C935       C1322   1.406   1_554  A
C935        C940   1.412       .  A
C935        H942   1.084       .  S
C936       C1321   1.406       .  A
C936        C937   1.416       .  A
C937        C938   1.394       .  A
C937        C944   1.511       .  S
C938        C939   1.406       .  A
C938        H943   1.082       .  S
C939       C1326   1.420       .  A
C940       C1325   1.420   1_554  A
C940        C941   1.506       .  S
C941        H945   1.111       .  S
C941        H946   1.110       .  S
C941        H947   1.110       .  S
C944        H948   1.107       .  S
C944        H949   1.105       .  S
C944        H950   1.111       .  S
C951        C952   1.403       .  A
C951        C956   1.393   1_556  A
C951        H958   1.085   1_556  S
C952        C953   1.416       .  A
C953        C954   1.410       .  A
C953        C960   1.506       .  S
C954        C955   1.408       .  A
C954        H959   1.084       .  S
C955        C956   1.415   1_556  A
C956        C957   1.506       .  S
C957        H961   1.111       .  S
C957        H962   1.110       .  S
C957       H1349   1.097       .  S
C960        H964   1.110       .  S
C960       H1351   1.110       .  S
C960        H966   1.111       .  S
H963       C1343   1.097       .  S
H965       C1346   1.110       .  S
C967        C968   1.416       .  A
C967        C972   1.395       .  A
C967        H974   1.085       .  S
C968        C969   1.411       .  A
C969        C970   1.411       .  A
C969        C976   1.504       .  S
C970        C971   1.409       .  A
C970        H975   1.082       .  S
C971        C972   1.398       .  A
C972        C973   1.501       .  S
C973        H977   1.108       .  S
C973        H978   1.111       .  S
C973        H979   1.111       .  S
C976        H980   1.110       .  S
C976        H981   1.110       .  S
C976        H982   1.110       .  S
C983        C984   1.399       .  A
C983        C988   1.398       .  A
C983        H990   1.085       .  S
C984        C985   1.411       .  A
C985        C986   1.405       .  A
C985        C992   1.507       .  S
C986        C987   1.405       .  A
C986        H991   1.084       .  S
C987        C988   1.417       .  A
C988        C989   1.508       .  S
C989        H993   1.111       .  S
C989        H994   1.110       .  S
C989        H995   1.110       .  S
C992        H996   1.110       .  S
C992        H997   1.110       .  S
C992        H998   1.109       .  S
C999       C1004   1.410       .  A
C999       H1006   1.084       .  S
C1000      C1001   1.423       .  A
C1001      C1002   1.412       .  A
C1001      C1008   1.508       .  S
C1002      C1003   1.407       .  A
C1002      H1007   1.084       .  S
C1004      C1005   1.505       .  S
C1005      H1009   1.111       .  S
C1005      H1010   1.110       .  S
C1005      H1011   1.103       .  S
C1008      H1012   1.110       .  S
C1008      H1013   1.110       .  S
C1008      H1014   1.111       .  S
C1015      C1016   1.410       .  A
C1015      C1020   1.412       .  A
C1015      H1022   1.084       .  S
C1017      C1018   1.414       .  A
C1017      C1024   1.507       .  S
C1018      H1023   1.084       .  S
C1019      C1020   1.424       .  A
C1020      C1021   1.504       .  S
C1021      H1025   1.110       .  S
C1021      H1026   1.099       .  S
C1021      H1027   1.111       .  S
C1024      H1028   1.110       .  S
C1024      H1029   1.110       .  S
C1024      H1030   1.111       .  S
C1031      C1032   1.415       .  A
C1031      C1036   1.392       .  A
C1031      H1038   1.084       .  S
C1032      C1033   1.409       .  A
C1033      C1034   1.404       .  A
C1033      C1040   1.504       .  S
C1034      C1035   1.406       .  A
C1034      H1039   1.084       .  S
C1035      C1036   1.398       .  A
C1036      C1037   1.504       .  S
C1037      H1041   1.111       .  S
C1037      H1042   1.108       .  S
C1037      H1043   1.110       .  S
C1040      H1044   1.110       .  S
C1040      H1045   1.109       .  S
C1040      H1046   1.111       .  S
C1047      C1048   1.400       .  A
C1047      C1052   1.404       .  A
C1047      H1054   1.084       .  S
C1048      C1049   1.414       .  A
C1049      C1050   1.388       .  A
C1049      C1056   1.514       .  S
C1050      C1051   1.400       .  A
C1050      H1055   1.086       .  S
C1051      C1052   1.418       .  A
C1052      C1053   1.506       .  S
C1053      H1057   1.111       .  S
C1053      H1058   1.106       .  S
C1053      H1059   1.110       .  S
C1056      H1060   1.110       .  S
C1056      H1061   1.106       .  S
C1056      H1062   1.111       .  S
C1063      C2608   1.412   1_455  A
C1063      C1068   1.416       .  A
C1063      H1070   1.082       .  S
C1064      C2607   1.412       .  A
C1064      C1065   1.421       .  A
C1065      C1066   1.407       .  A
C1065      C1072   1.507       .  S
C1066      C1067   1.405       .  A
C1066      H1071   1.084       .  S
C1067      C2612   1.417       .  A
C1068      C2611   1.417   1_455  A
C1068      C1069   1.504       .  S
C1069      H1073   1.111       .  S
C1069      H1074   1.109       .  S
C1069      H1075   1.108       .  S
C1072      H1076   1.107       .  S
C1072      H1077   1.109       .  S
C1072      H1078   1.111       .  S
C1079      C1080   1.405       .  A
C1079      C1084   1.413       .  A
C1079      H1086   1.085       .  S
C1080      C2625   1.412       .  A
C1081      C2624   1.412       .  A
C1081      C1082   1.410       .  A
C1081      C1088   1.507       .  S
C1082      C2627   1.407       .  A
C1082      H1087   1.078       .  S
C1083      C2626   1.407       .  A
C1083      C1084   1.422       .  A
C1084      C1085   1.503       .  S
C1085      H1089   1.110       .  S
C1085      H1090   1.101       .  S
C1085      H1091   1.110       .  S
C1088      H1092   1.111       .  S
C1088      H1093   1.110       .  S
C1088      H1094   1.111       .  S
C1095      C1100   1.426       .  A
C1095      H1102   1.083       .  S
C1096      C1097   1.426       .  A
C1097      C1098   1.403       .  A
C1097      C1104   1.512       .  S
C1098      C1099   1.401       .  A
C1098      H1103   1.082       .  S
C1100      C1101   1.504       .  S
C1101      H1105   1.110       .  S
C1101      H1106   1.108       .  S
C1101      H1107   1.107       .  S
C1104      H1108   1.109       .  S
C1104      H1109   1.111       .  S
C1104      H1110   1.111       .  S
C1111      C1116   1.424       .  A
C1111      H1118   1.084       .  S
C1112      C1113   1.428   1_545  A
C1113      C1114   1.408       .  A
C1113      C1120   1.511       .  S
C1114      C1115   1.404       .  A
C1114      H1119   1.078       .  S
C1116      C1117   1.505       .  S
C1117      H1121   1.110       .  S
C1117      H1122   1.107       .  S
C1117      H1123   1.110       .  S
C1120      H1124   1.110       .  S
C1120      H1125   1.110   1_565  S
C1120      H1126   1.111       .  S
C1127      C1128   1.413       .  A
C1127      C1132   1.420       .  A
C1127      H1134   1.084       .  S
C1128      C2673   1.423       .  A
C1129      C2672   1.423       .  A
C1129      C1130   1.407       .  A
C1129      C1136   1.507   1_655  S
C1130      C2675   1.408       .  A
C1130      H1135   1.084       .  S
C1131      C2674   1.408       .  A
C1131      C1132   1.419       .  A
C1132      C1133   1.504       .  S
C1133      H1137   1.111       .  S
C1133      H1138   1.110       .  S
C1133      H1139   1.110       .  S
C1136      H1140   1.099   1_455  S
C1136      H1141   1.098       .  S
C1136      H1142   1.111       .  S
C1143      C1144   1.414       .  A
C1143      C1148   1.419       .  A
C1143      H1150   1.081       .  S
C1144      C2689   1.416       .  A
C1145      C2688   1.416       .  A
C1145      C1146   1.402       .  A
C1145      C1152   1.504       .  S
C1146      C2691   1.413       .  A
C1146      H1151   1.084       .  S
C1147      C2690   1.413       .  A
C1147      C1148   1.417       .  A
C1148      C1149   1.505       .  S
C1149      H1153   1.111       .  S
C1149      H1154   1.110       .  S
C1149      H1155   1.110       .  S
C1152      H1156   1.096       .  S
C1152      H1157   1.111       .  S
C1152      H1158   1.111       .  S
C1159      C1485   1.516       .  S
C1159      C1530   1.516       .  S
C1159      C1932   1.394   1_455  D
C1160      C1501   1.526       .  S
C1160      C1514   1.520       .  S
C1160      C1931   1.394       .  D
Zn1161     O1165   1.916       .  S
Zn1161     O1166   1.937       .  S
Zn1161     O1170   1.861       .  S
Zn1161     O1177   2.010       .  S
Zn1162     O2709   1.973   1_455  S
Zn1162     O1167   2.056       .  S
Zn1162     O1169   2.131       .  S
Zn1162     O1173   2.072       .  S
Zn1163     O1165   1.972       .  S
Zn1163     O1168   2.077       .  S
Zn1163     O1171   2.057       .  S
Zn1163     O1174   2.124       .  S
Zn1164     O2709   1.924   1_455  S
Zn1164     O1172   1.973   1_455  S
Zn1164     O1175   1.886       .  S
Zn1164     O1176   2.081       .  S
O1165     Zn2706   1.973       .  S
O1165     Zn2708   1.924       .  S
O1166      C2722   1.261       .  A
O1167      C1179   1.280   1_455  A
O1168      C1180   1.287       .  A
O1169      C1178   1.282       .  A
O1170      C1180   1.258       .  A
O1171      C2723   1.279       .  A
O1172      C2725   1.268       .  A
O1173      C1182   1.285       .  A
O1174      C1181   1.283       .  A
O1175      C1182   1.263       .  A
O1176      C2727   1.274       .  A
O1177      C1183   1.268       .  A
C1178      O2710   1.261       .  A
C1178      C1533   1.513       .  S
C1179      O2715   1.279       .  A
C1179      C1466   1.494       .  S
C1180      C1418   1.457       .  S
C1181      O2716   1.268       .  A
C1181      C1517   1.514       .  S
C1182      C1434   1.454       .  S
C1183      O2720   1.274       .  A
C1183      C1453   1.503       .  S
Zn1184     O1188   1.935   1_565  S
Zn1184     O1189   2.015   1_565  S
Zn1184     O1193   1.923       .  S
Zn1184     O1200   2.047       .  S
Zn1185     O1190   2.090       .  S
Zn1185     O1192   2.115       .  S
Zn1185     O1196   2.085       .  S
Zn1186     O1188   1.983   1_565  S
Zn1186     O1191   2.070       .  S
Zn1186     O1194   2.033       .  S
Zn1186     O1197   2.146       .  S
Zn1187     O1195   1.975       .  S
Zn1187     O1198   1.924       .  S
Zn1187     O1199   2.041       .  S
O1189      C1201   1.270       .  A
O1190      C1202   1.283       .  A
O1191      C1203   1.283       .  A
O1193      C1203   1.269       .  A
O1195      C1204   1.268       .  A
O1196      C1205   1.287       .  A
O1198      C1205   1.265       .  A
O1200      C1206   1.272       .  A
C1201      C1498   1.525       .  S
C1202      C1402   1.514       .  S
C1203      C1354   1.481       .  S
C1204      C1482   1.515       .  S
C1205      C1370   1.461       .  S
C1206      C1386   1.512       .  S
C1207      C1341   1.497       .  S
C1207      C1405   1.526       .  S
C1208      C1322   1.496       .  S
C1208      C1389   1.519       .  S
C1209      C1309   1.497       .  S
C1209      C1469   1.515   1_455  S
C1209      C2368   1.378   1_455  D
C1210      C1293   1.500       .  S
C1210      C1450   1.522       .  S
C1210      C2367   1.378   1_556  D
Zn1211     O1216   2.051       .  S
Zn1211     O1220   2.050       .  S
Zn1211     O1227   2.023       .  S
Zn1212     O1215   1.919       .  S
Zn1212     O1217   1.942       .  S
Zn1212     O1219   1.967       .  S
Zn1212     O1223   2.033       .  S
Zn1213     O1215   1.953       .  S
Zn1213     O1218   2.015       .  S
Zn1213     O1221   1.928       .  S
Zn1213     O1224   2.037       .  S
Zn1214     O1222   1.986       .  S
Zn1214     O1225   2.002       .  S
Zn1214     O1226   1.955       .  S
O1217      C1229   1.267       .  A
O1219      C1228   1.271       .  A
O1220      C1230   1.274       .  A
O1221      C1229   1.267       .  A
O1222      C1231   1.269       .  A
O1223      C1232   1.271       .  A
O1226      C1233   1.266       .  A
O1227      C1233   1.276       .  A
C1228      C1338   1.486       .  S
C1229      C1274   1.420       .  S
C1230      C1290   1.484       .  S
C1231      C1325   1.496       .  S
C1232      C1306   1.481       .  S
C1233      C1258   1.490       .  S
Zn1234     O1238   1.849       .  S
Zn1234     O1239   2.004       .  S
Zn1234     O1243   1.959       .  S
Zn1234     O1250   1.975       .  S
Zn1235     O1238   1.797       .  S
Zn1235     O1240   2.055       .  S
Zn1235     O1242   1.916       .  S
Zn1235     O1246   1.875       .  S
Zn1236     O1238   1.842       .  S
Zn1236     O1241   1.894       .  S
Zn1236     O1244   1.961       .  S
Zn1236     O1247   1.953       .  S
Zn1237     O1238   1.876       .  S
Zn1237     O1245   2.007       .  S
Zn1237     O1248   2.062       .  S
Zn1237     O1249   2.023       .  S
O1239      C1251   1.272       .  A
O1240      C1252   1.274       .  A
O1241      C1253   1.261       .  A
O1242      C1251   1.270       .  A
O1243      C1253   1.268       .  A
O1244      C1252   1.261       .  A
O1245      C1254   1.284       .  A
O1246      C1255   1.266       .  A
O1247      C1254   1.269       .  A
O1248      C1255   1.278       .  A
O1249      C1256   1.273       .  A
O1250      C1256   1.278       .  A
C1251      C1437   1.465       .  S
C1252      C1373   1.476       .  S
C1253      C1277   1.420       .  S
C1254      C1421   1.463       .  S
C1255      C1261   1.492       .  S
C1256      C1357   1.464       .  S
C1257      C1258   1.420       .  A
C1257      C1262   1.412       .  A
C1257      H1264   1.079       .  S
C1258      C1259   1.437       .  A
C1259      C1260   1.421       .  A
C1259      C1266   1.514       .  S
C1260      C1261   1.413       .  A
C1260      H1265   1.084       .  S
C1261      C1262   1.395       .  A
C1262      C1263   1.498       .  S
C1263      H1267   1.107       .  S
C1263      H1268   1.111       .  S
C1263      H1269   1.111       .  S
C1266      H1270   1.103       .  S
C1266      H1271   1.110       .  S
C1266      H1272   1.111       .  S
C1273      C1274   1.394       .  A
C1273      C1278   1.384       .  A
C1273      H1280   1.085       .  S
C1274      C1275   1.404       .  A
C1275      C1276   1.386       .  A
C1275      C1282   1.508       .  S
C1276      C1277   1.394       .  A
C1276      H1281   1.083       .  S
C1277      C1278   1.406       .  A
C1278      C1279   1.509       .  S
C1279      H1283   1.111       .  S
C1279      H1284   1.110       .  S
C1279      H1285   1.109       .  S
C1282      H1286   1.110       .  S
C1282      H1287   1.111       .  S
C1282      H1288   1.111       .  S
C1289      C1290   1.396       .  A
C1289      C1294   1.400       .  A
C1289      H1296   1.080       .  S
C1291      C1292   1.413       .  A
C1291      C1298   1.505       .  S
C1292      H1297   1.084       .  S
C1293      C1294   1.418       .  A
C1294      C1295   1.507       .  S
C1295      H1299   1.109       .  S
C1295      H1300   1.111       .  S
C1295      H1301   1.100       .  S
C1298      H1302   1.110       .  S
C1298      H1303   1.110       .  S
C1298      H1304   1.111       .  S
C1305      C1306   1.402       .  A
C1305      C1310   1.408       .  A
C1305      H1312   1.084       .  S
C1307      C1308   1.403       .  A
C1307      C1314   1.508       .  S
C1308      H1313   1.081       .  S
C1309      C1310   1.418       .  A
C1310      C1311   1.505       .  S
C1311      H1315   1.111       .  S
C1311      H1316   1.105       .  S
C1311      H1317   1.104       .  S
C1314      H1318   1.110   1_554  S
C1314      H1319   1.111       .  S
C1314      H1320   1.111       .  S
C1321      C1326   1.412       .  A
C1321      H1328   1.084       .  S
C1322      C1323   1.416       .  A
C1323      C1324   1.394       .  A
C1323      C1330   1.511       .  S
C1324      C1325   1.406       .  A
C1324      H1329   1.082       .  S
C1326      C1327   1.506       .  S
C1327      H1331   1.111       .  S
C1327      H1332   1.110       .  S
C1327      H1333   1.110       .  S
C1330      H1334   1.107       .  S
C1330      H1335   1.105       .  S
C1330      H1336   1.111       .  S
C1337      C1338   1.403       .  A
C1337      C1342   1.393       .  A
C1337      H1344   1.085       .  S
C1338      C1339   1.416       .  A
C1339      C1340   1.410       .  A
C1339      C1346   1.506       .  S
C1340      C1341   1.408       .  A
C1340      H1345   1.084       .  S
C1341      C1342   1.415       .  A
C1342      C1343   1.506       .  S
C1343      H1347   1.111       .  S
C1343      H1348   1.110       .  S
C1346      H1350   1.110       .  S
C1346      H1352   1.111       .  S
C1353      C1354   1.416       .  A
C1353      C1358   1.395       .  A
C1353      H1360   1.085       .  S
C1354      C1355   1.411       .  A
C1355      C1356   1.411       .  A
C1355      C1362   1.504       .  S
C1356      C1357   1.409       .  A
C1356      H1361   1.082       .  S
C1357      C1358   1.398       .  A
C1358      C1359   1.501       .  S
C1359      H1363   1.108       .  S
C1359      H1364   1.111       .  S
C1359      H1365   1.111       .  S
C1362      H1366   1.110       .  S
C1362      H1367   1.110       .  S
C1362      H1368   1.110       .  S
C1369      C1370   1.399       .  A
C1369      C1374   1.398       .  A
C1369      H1376   1.085       .  S
C1370      C1371   1.411       .  A
C1371      C1372   1.405       .  A
C1371      C1378   1.507       .  S
C1372      C1373   1.405       .  A
C1372      H1377   1.084       .  S
C1373      C1374   1.417       .  A
C1374      C1375   1.508       .  S
C1375      H1379   1.111       .  S
C1375      H1380   1.110       .  S
C1375      H1381   1.110       .  S
C1378      H1382   1.110       .  S
C1378      H1383   1.110       .  S
C1378      H1384   1.109       .  S
C1385      C1390   1.410       .  A
C1385      H1392   1.084       .  S
C1386      C1387   1.423       .  A
C1387      C1388   1.412       .  A
C1387      C1394   1.508       .  S
C1388      C1389   1.407       .  A
C1388      H1393   1.084       .  S
C1390      C1391   1.505       .  S
C1391      H1395   1.111       .  S
C1391      H1396   1.110       .  S
C1391      H1397   1.103       .  S
C1394      H1398   1.110       .  S
C1394      H1399   1.110       .  S
C1394      H1400   1.111       .  S
C1401      C1402   1.410       .  A
C1401      C1406   1.412       .  A
C1401      H1408   1.084       .  S
C1403      C1404   1.414       .  A
C1403      C1410   1.507       .  S
C1404      H1409   1.084       .  S
C1405      C1406   1.424       .  A
C1406      C1407   1.504       .  S
C1407      H1411   1.110       .  S
C1407      H1412   1.099       .  S
C1407      H1413   1.111       .  S
C1410      H1414   1.110       .  S
C1410      H1415   1.110       .  S
C1410      H1416   1.111       .  S
C1417      C1418   1.415       .  A
C1417      C1422   1.392       .  A
C1417      H1424   1.084       .  S
C1418      C1419   1.409       .  A
C1419      C1420   1.404       .  A
C1419      C1426   1.504       .  S
C1420      C1421   1.406       .  A
C1420      H1425   1.084       .  S
C1421      C1422   1.398       .  A
C1422      C1423   1.504       .  S
C1423      H1427   1.111       .  S
C1423      H1428   1.108       .  S
C1423      H1429   1.110       .  S
C1426      H1430   1.110       .  S
C1426      H1431   1.109       .  S
C1426      H1432   1.111       .  S
C1433      C1434   1.400       .  A
C1433      C1438   1.404       .  A
C1433      H1440   1.084       .  S
C1434      C1435   1.414       .  A
C1435      C1436   1.388       .  A
C1435      C1442   1.514       .  S
C1436      C1437   1.400       .  A
C1436      H1441   1.086       .  S
C1437      C1438   1.418       .  A
C1438      C1439   1.506       .  S
C1439      H1443   1.111       .  S
C1439      H1444   1.106       .  S
C1439      H1445   1.110       .  S
C1442      H1446   1.110       .  S
C1442      H1447   1.106       .  S
C1442      H1448   1.111       .  S
C1449      C2994   1.412   1_455  A
C1449      C1454   1.416       .  A
C1449      H1456   1.082       .  S
C1450      C2993   1.412       .  A
C1450      C1451   1.421       .  A
C1451      C1452   1.407       .  A
C1451      C1458   1.507       .  S
C1452      C1453   1.405       .  A
C1452      H1457   1.084       .  S
C1453      C2998   1.417       .  A
C1454      C2997   1.417   1_455  A
C1454      C1455   1.504       .  S
C1455      H1459   1.111       .  S
C1455      H1460   1.109       .  S
C1455      H1461   1.108       .  S
C1458      H1462   1.107       .  S
C1458      H1463   1.109       .  S
C1458      H1464   1.111       .  S
C1465      C1466   1.405       .  A
C1465      C1470   1.413       .  A
C1465      H1472   1.085       .  S
C1466      C3011   1.412       .  A
C1467      C3010   1.412       .  A
C1467      C1468   1.410       .  A
C1467      C1474   1.507       .  S
C1468      C3013   1.407       .  A
C1468      H1473   1.078       .  S
C1469      C3012   1.407       .  A
C1469      C1470   1.422       .  A
C1470      C1471   1.503       .  S
C1471      H1475   1.110       .  S
C1471      H1476   1.101       .  S
C1471      H1477   1.110       .  S
C1474      H1478   1.111       .  S
C1474      H1479   1.110       .  S
C1474      H1480   1.111       .  S
C1481      C1486   1.426       .  A
C1481      H1488   1.083       .  S
C1482      C1483   1.426       .  A
C1483      C1484   1.403       .  A
C1483      C1490   1.512       .  S
C1484      C1485   1.401       .  A
C1484      H1489   1.082       .  S
C1486      C1487   1.504       .  S
C1487      H1491   1.110       .  S
C1487      H1492   1.108       .  S
C1487      H1493   1.107       .  S
C1490      H1494   1.109       .  S
C1490      H1495   1.111       .  S
C1490      H1496   1.111       .  S
C1497      C1502   1.424       .  A
C1497      H1504   1.084       .  S
C1498      C1499   1.428   1_545  A
C1499      C1500   1.408       .  A
C1499      C1506   1.511       .  S
C1500      C1501   1.404       .  A
C1500      H1505   1.078       .  S
C1502      C1503   1.505       .  S
C1503      H1507   1.110       .  S
C1503      H1508   1.107       .  S
C1503      H1509   1.110       .  S
C1506      H1510   1.110       .  S
C1506      H1511   1.110   1_565  S
C1506      H1512   1.111       .  S
C1513      C1514   1.413       .  A
C1513      C1518   1.420       .  A
C1513      H1520   1.084       .  S
C1514      C3059   1.423       .  A
C1515      C3058   1.423       .  A
C1515      C1516   1.407       .  A
C1515      C1522   1.507   1_655  S
C1516      C3061   1.408       .  A
C1516      H1521   1.084       .  S
C1517      C3060   1.408       .  A
C1517      C1518   1.419       .  A
C1518      C1519   1.504       .  S
C1519      H1523   1.111       .  S
C1519      H1524   1.110       .  S
C1519      H1525   1.110       .  S
C1522      H1526   1.099   1_455  S
C1522      H1527   1.098       .  S
C1522      H1528   1.111       .  S
C1529      C1530   1.414       .  A
C1529      C1534   1.419       .  A
C1529      H1536   1.081       .  S
C1530      C3075   1.416       .  A
C1531      C3074   1.416       .  A
C1531      C1532   1.402       .  A
C1531      C1538   1.504       .  S
C1532      C3077   1.413       .  A
C1532      H1537   1.084       .  S
C1533      C3076   1.413       .  A
C1533      C1534   1.417       .  A
C1534      C1535   1.505       .  S
C1535      H1539   1.111       .  S
C1535      H1540   1.110       .  S
C1535      H1541   1.110       .  S
C1538      H1542   1.096       .  S
C1538      H1543   1.111       .  S
C1538      H1544   1.111       .  S
C1545      C1871   1.516       .  S
C1545      C1916   1.516   1_565  S
C1546      C1887   1.526       .  S
C1546      C1900   1.520       .  S
Zn1547     O1551   1.916       .  S
Zn1547     O1552   1.937   1_655  S
Zn1547     O1556   1.861       .  S
Zn1547     O1563   2.010   1_655  S
Zn1548     O1553   2.056       .  S
Zn1548     O1555   2.131       .  S
Zn1548     O1559   2.072       .  S
Zn1549     O1551   1.972       .  S
Zn1549     O1554   2.077       .  S
Zn1549     O1557   2.057       .  S
Zn1549     O1560   2.124       .  S
Zn1550     O1558   1.973       .  S
Zn1550     O1561   1.886       .  S
Zn1550     O1562   2.081       .  S
O1553      C1565   1.280       .  A
O1554      C1566   1.287       .  A
O1555      C1564   1.282       .  A
O1556      C1566   1.258       .  A
O1559      C1568   1.285       .  A
O1560      C1567   1.283       .  A
O1561      C1568   1.263       .  A
O1563      C1569   1.268       .  A
C1564      C1919   1.513       .  S
C1565      C1852   1.494       .  S
C1566      C1804   1.457       .  S
C1567      C1903   1.514       .  S
C1568      C1820   1.454       .  S
C1569      C1839   1.503   1_455  S
Zn1570     O1574   1.935       .  S
Zn1570     O1575   2.015       .  S
Zn1570     O1579   1.923       .  S
Zn1570     O1586   2.047       .  S
Zn1571     O2346   1.976       .  S
Zn1571     O1576   2.090       .  S
Zn1571     O1578   2.115       .  S
Zn1571     O1582   2.085       .  S
Zn1572     O1574   1.983       .  S
Zn1572     O1577   2.070       .  S
Zn1572     O1580   2.033       .  S
Zn1572     O1583   2.146       .  S
Zn1573     O2346   1.916       .  S
Zn1573     O1581   1.975       .  S
Zn1573     O1584   1.924       .  S
Zn1573     O1585   2.041       .  S
O1574     Zn2343   1.976       .  S
O1574     Zn2345   1.916       .  S
O1575      C1587   1.270       .  A
O1576      C1588   1.283       .  A
O1577      C1589   1.283       .  A
O1578      C2359   1.281       .  A
O1579      C1589   1.269       .  A
O1580      C2360   1.276       .  A
O1581      C1590   1.268   1_545  A
O1582      C1591   1.287       .  A
O1583      C2362   1.288       .  A
O1584      C1591   1.265       .  A
O1585      C2364   1.273   1_545  A
O1586      C1592   1.272       .  A
C1587      O2350   1.281       .  A
C1587      C1884   1.525       .  S
C1588      O2352   1.276   1_545  A
C1588      C1788   1.514       .  S
C1589      C1740   1.481       .  S
C1590      O2355   1.288       .  A
C1590      C1868   1.515       .  S
C1591      C1756   1.461       .  S
C1592      O2357   1.273       .  A
C1592      C1772   1.512       .  S
C1593      C1727   1.497   1_554  S
C1593      C1791   1.526       .  S
C1593      C2752   1.382   1_544  D
C1594      C1708   1.496       .  S
C1594      C1775   1.519       .  S
C1594      C2751   1.382       .  D
C1595      C1695   1.497   1_554  S
C1595      C1855   1.515       .  S
C1596      C1679   1.500       .  S
C1596      C1836   1.522       .  S
Zn1597     O1987   1.996       .  S
Zn1597     O1602   2.051       .  S
Zn1597     O1606   2.050       .  S
Zn1597     O1613   2.023       .  S
Zn1598     O1601   1.919   1_554  S
Zn1598     O1603   1.942       .  S
Zn1598     O1605   1.967   1_554  S
Zn1598     O1609   2.033       .  S
Zn1599     O1601   1.953   1_554  S
Zn1599     O1604   2.015       .  S
Zn1599     O1607   1.928       .  S
Zn1599     O1610   2.037       .  S
Zn1600     O1987   1.952       .  S
Zn1600     O1608   1.987       .  S
Zn1600     O1611   2.002       .  S
Zn1600     O1612   1.955       .  S
O1601     Zn1983   1.996       .  S
O1601     Zn1986   1.952       .  S
O1602      C2000   1.277       .  A
O1603      C1615   1.267       .  A
O1604      C2002   1.272   1_554  A
O1605      C1614   1.271       .  A
O1606      C1616   1.274       .  A
O1607      C1615   1.267       .  A
O1608      C1617   1.269       .  A
O1609      C1618   1.271   1_554  A
O1610      C2003   1.271   1_554  A
O1611      C2004   1.268       .  A
O1612      C1619   1.266       .  A
O1613      C1619   1.276       .  A
C1614      O1988   1.277       .  A
C1614      C1724   1.486       .  S
C1615      C1660   1.420       .  S
C1616      O1990   1.272       .  A
C1616      C1676   1.484       .  S
C1617      O1996   1.271       .  A
C1617      C1711   1.496       .  S
C1618      O1997   1.268       .  A
C1618      C1692   1.481       .  S
C1619      C1644   1.490       .  S
Zn1620     O1624   1.849       .  S
Zn1620     O1625   2.004       .  S
Zn1620     O1629   1.959       .  S
Zn1620     O1636   1.975       .  S
Zn1621     O1624   1.797       .  S
Zn1621     O1626   2.055       .  S
Zn1621     O1628   1.916       .  S
Zn1621     O1632   1.875       .  S
Zn1622     O1624   1.842       .  S
Zn1622     O1627   1.894       .  S
Zn1622     O1630   1.961       .  S
Zn1622     O1633   1.953       .  S
Zn1623     O1624   1.876       .  S
Zn1623     O1631   2.008       .  S
Zn1623     O1634   2.062       .  S
Zn1623     O1635   2.023       .  S
O1625      C1637   1.272       .  A
O1626      C1638   1.274       .  A
O1627      C1639   1.261       .  A
O1628      C1637   1.270       .  A
O1629      C1639   1.268       .  A
O1630      C1638   1.261       .  A
O1631      C1640   1.284       .  A
O1632      C1641   1.266       .  A
O1633      C1640   1.269       .  A
O1634      C1641   1.278       .  A
O1635      C1642   1.273       .  A
O1636      C1642   1.278       .  A
C1637      C1823   1.465       .  S
C1638      C1759   1.476       .  S
C1639      C1663   1.420       .  S
C1640      C1807   1.463       .  S
C1641      C1647   1.492       .  S
C1642      C1743   1.464       .  S
C1643      C1644   1.420       .  A
C1643      C1648   1.412       .  A
C1643      H1650   1.079       .  S
C1644      C1645   1.437       .  A
C1645      C1646   1.421       .  A
C1645      C1652   1.514       .  S
C1646      C1647   1.413       .  A
C1646      H1651   1.084       .  S
C1647      C1648   1.395       .  A
C1648      C1649   1.498       .  S
C1649      H1653   1.107       .  S
C1649      H1654   1.111       .  S
C1649      H1655   1.111       .  S
C1652      H1656   1.103       .  S
C1652      H1657   1.110       .  S
C1652      H1658   1.111       .  S
C1659      C1660   1.394       .  A
C1659      C1664   1.384       .  A
C1659      H1666   1.085       .  S
C1660      C1661   1.404       .  A
C1661      C1662   1.386       .  A
C1661      C1668   1.508       .  S
C1662      C1663   1.394       .  A
C1662      H1667   1.083       .  S
C1663      C1664   1.406       .  A
C1664      C1665   1.509       .  S
C1665      H1669   1.111       .  S
C1665      H1670   1.110       .  S
C1665      H1671   1.109       .  S
C1668      H1672   1.110       .  S
C1668      H1673   1.111       .  S
C1668      H1674   1.111       .  S
C1675      C1676   1.396       .  A
C1675      C1680   1.400       .  A
C1675      H1682   1.080       .  S
C1676      C2063   1.413       .  A
C1677      C2062   1.413   1_554  A
C1677      C1678   1.412   1_554  A
C1677      C1684   1.505       .  S
C1678      C2065   1.410       .  A
C1678      H1683   1.084   1_556  S
C1679      C2064   1.410       .  A
C1679      C1680   1.418       .  A
C1680      C1681   1.507       .  S
C1681      H1685   1.109       .  S
C1681      H1686   1.111       .  S
C1681      H1687   1.100       .  S
C1684      H1688   1.110   1_554  S
C1684      H1689   1.110       .  S
C1684      H1690   1.111       .  S
C1691      C1692   1.402       .  A
C1691      C1696   1.408       .  A
C1691      H1698   1.084       .  S
C1692      C2079   1.414   1_556  A
C1693      C2078   1.414       .  A
C1693      C1694   1.403       .  A
C1693      C1700   1.508       .  S
C1694      C2081   1.404       .  A
C1694      H1699   1.081       .  S
C1695      C2080   1.404   1_556  A
C1695      C1696   1.418       .  A
C1696      C1697   1.505       .  S
C1697      H1701   1.111       .  S
C1697      H1702   1.105       .  S
C1697      H1703   1.104       .  S
C1700      H1704   1.110       .  S
C1700      H1705   1.111       .  S
C1700      H1706   1.111       .  S
C1707      C2094   1.406   1_554  A
C1707      C1712   1.412       .  A
C1707      H1714   1.084       .  S
C1708      C2093   1.406       .  A
C1708      C1709   1.416       .  A
C1709      C1710   1.394       .  A
C1709      C1716   1.511       .  S
C1710      C1711   1.406       .  A
C1710      H1715   1.082       .  S
C1711      C2098   1.420       .  A
C1712      C2097   1.420   1_554  A
C1712      C1713   1.506       .  S
C1713      H1717   1.111       .  S
C1713      H1718   1.110       .  S
C1713      H1719   1.110       .  S
C1716      H1720   1.107       .  S
C1716      H1721   1.105       .  S
C1716      H1722   1.111       .  S
C1723      C1724   1.403       .  A
C1723      C1728   1.393   1_556  A
C1723      H1730   1.085   1_556  S
C1724      C1725   1.416       .  A
C1725      C1726   1.410       .  A
C1725      C1732   1.506       .  S
C1726      C1727   1.408       .  A
C1726      H1731   1.084       .  S
C1727      C1728   1.415   1_556  A
C1728      C1729   1.506       .  S
C1729      H1733   1.111       .  S
C1729      H1734   1.110       .  S
C1729      H2121   1.097       .  S
C1732      H1736   1.110       .  S
C1732      H2123   1.110       .  S
C1732      H1738   1.111       .  S
H1735      C2115   1.097       .  S
H1737      C2118   1.110       .  S
C1739      C1740   1.416       .  A
C1739      C1744   1.395       .  A
C1739      H1746   1.085       .  S
C1740      C1741   1.411       .  A
C1741      C1742   1.411       .  A
C1741      C1748   1.504       .  S
C1742      C1743   1.409       .  A
C1742      H1747   1.082       .  S
C1743      C1744   1.398       .  A
C1744      C1745   1.501       .  S
C1745      H1749   1.108       .  S
C1745      H1750   1.111       .  S
C1745      H1751   1.111       .  S
C1748      H1752   1.110       .  S
C1748      H1753   1.110       .  S
C1748      H1754   1.110       .  S
C1755      C1756   1.399       .  A
C1755      C1760   1.398       .  A
C1755      H1762   1.085       .  S
C1756      C1757   1.411       .  A
C1757      C1758   1.405       .  A
C1757      C1764   1.507       .  S
C1758      C1759   1.405       .  A
C1758      H1763   1.084       .  S
C1759      C1760   1.417       .  A
C1760      C1761   1.508       .  S
C1761      H1765   1.111       .  S
C1761      H1766   1.110       .  S
C1761      H1767   1.110       .  S
C1764      H1768   1.110       .  S
C1764      H1769   1.110       .  S
C1764      H1770   1.109       .  S
C1771      C2544   1.411   1_545  A
C1771      C1776   1.410       .  A
C1771      H1778   1.084       .  S
C1772      C2543   1.411       .  A
C1772      C1773   1.423       .  A
C1773      C1774   1.412       .  A
C1773      C1780   1.508       .  S
C1774      C1775   1.407       .  A
C1774      H1779   1.084       .  S
C1775      C2548   1.420       .  A
C1776      C2547   1.420   1_545  A
C1776      C1777   1.505       .  S
C1777      H1781   1.111       .  S
C1777      H1782   1.110       .  S
C1777      H1783   1.103       .  S
C1780      H1784   1.110       .  S
C1780      H1785   1.110       .  S
C1780      H1786   1.111       .  S
C1787      C1788   1.410   1_565  A
C1787      C1792   1.412       .  A
C1787      H1794   1.084       .  S
C1788      C2561   1.419       .  A
C1789      C2560   1.419       .  A
C1789      C1790   1.414       .  A
C1789      C1796   1.507       .  S
C1790      C2563   1.411       .  A
C1790      H1795   1.084       .  S
C1791      C2562   1.411       .  A
C1791      C1792   1.424   1_545  A
C1792      C1793   1.504       .  S
C1793      H1797   1.110       .  S
C1793      H1798   1.099       .  S
C1793      H1799   1.111       .  S
C1796      H1800   1.110       .  S
C1796      H1801   1.110       .  S
C1796      H1802   1.111       .  S
C1803      C1804   1.415       .  A
C1803      C1808   1.392       .  A
C1803      H1810   1.084       .  S
C1804      C1805   1.409       .  A
C1805      C1806   1.404       .  A
C1805      C1812   1.504       .  S
C1806      C1807   1.406       .  A
C1806      H1811   1.084       .  S
C1807      C1808   1.398       .  A
C1808      C1809   1.504       .  S
C1809      H1813   1.111       .  S
C1809      H1814   1.108       .  S
C1809      H1815   1.110       .  S
C1812      H1816   1.110       .  S
C1812      H1817   1.109       .  S
C1812      H1818   1.111       .  S
C1819      C1820   1.400       .  A
C1819      C1824   1.404       .  A
C1819      H1826   1.084       .  S
C1820      C1821   1.414       .  A
C1821      C1822   1.388       .  A
C1821      C1828   1.514       .  S
C1822      C1823   1.400       .  A
C1822      H1827   1.086       .  S
C1823      C1824   1.418       .  A
C1824      C1825   1.506       .  S
C1825      H1829   1.111       .  S
C1825      H1830   1.106       .  S
C1825      H1831   1.110       .  S
C1828      H1832   1.110       .  S
C1828      H1833   1.106       .  S
C1828      H1834   1.111       .  S
C1835      C1840   1.416       .  A
C1835      H1842   1.082       .  S
C1836      C1837   1.421       .  A
C1837      C1838   1.407       .  A
C1837      C1844   1.507       .  S
C1838      C1839   1.405       .  A
C1838      H1843   1.084       .  S
C1840      C1841   1.504       .  S
C1841      H1845   1.111       .  S
C1841      H1846   1.109       .  S
C1841      H1847   1.108       .  S
C1844      H1848   1.107       .  S
C1844      H1849   1.109       .  S
C1844      H1850   1.111       .  S
C1851      C1852   1.405       .  A
C1851      C1856   1.413       .  A
C1851      H1858   1.085       .  S
C1853      C1854   1.410       .  A
C1853      C1860   1.507   1_655  S
C1854      H1859   1.078   1_655  S
C1855      C1856   1.422       .  A
C1856      C1857   1.503       .  S
C1857      H1861   1.110       .  S
C1857      H1862   1.101       .  S
C1857      H1863   1.110       .  S
C1860      H1864   1.111   1_455  S
C1860      H1865   1.110       .  S
C1860      H1866   1.111       .  S
C1867      C2640   1.412       .  A
C1867      C1872   1.426       .  A
C1867      H1874   1.083       .  S
C1868      C2639   1.412       .  A
C1868      C1869   1.426       .  A
C1869      C1870   1.403       .  A
C1869      C1876   1.512   1_565  S
C1870      C1871   1.401       .  A
C1870      H1875   1.082   1_565  S
C1871      C2644   1.420       .  A
C1872      C2643   1.420       .  A
C1872      C1873   1.504       .  S
C1873      H1877   1.110       .  S
C1873      H1878   1.108       .  S
C1873      H1879   1.107       .  S
C1876      H1880   1.109       .  S
C1876      H1881   1.111   1_545  S
C1876      H1882   1.111       .  S
C1883      C2656   1.415       .  A
C1883      C1888   1.424       .  A
C1883      H1890   1.084       .  S
C1884      C2655   1.415       .  A
C1884      C1885   1.428       .  A
C1885      C1886   1.408       .  A
C1885      C1892   1.511       .  S
C1886      C1887   1.404       .  A
C1886      H1891   1.078       .  S
C1887      C2660   1.421       .  A
C1888      C2659   1.421   1_545  A
C1888      C1889   1.505       .  S
C1889      H1893   1.110   1_545  S
C1889      H1894   1.107       .  S
C1889      H1895   1.110       .  S
C1892      H1896   1.110       .  S
C1892      H1897   1.110       .  S
C1892      H1898   1.111       .  S
C1899      C1900   1.413       .  A
C1899      C1904   1.420       .  A
C1899      H1906   1.084       .  S
C1901      C1902   1.407       .  A
C1901      C1908   1.507       .  S
C1902      H1907   1.084       .  S
C1903      C1904   1.419       .  A
C1904      C1905   1.504       .  S
C1905      H1909   1.111       .  S
C1905      H1910   1.110       .  S
C1905      H1911   1.110       .  S
C1908      H1912   1.099       .  S
C1908      H1913   1.098       .  S
C1908      H1914   1.111       .  S
C1915      C1916   1.414       .  A
C1915      C1920   1.419       .  A
C1915      H1922   1.081       .  S
C1917      C1918   1.402       .  A
C1917      C1924   1.504   1_455  S
C1918      H1923   1.084       .  S
C1919      C1920   1.417       .  A
C1920      C1921   1.505       .  S
C1921      H1925   1.111       .  S
C1921      H1926   1.110       .  S
C1921      H1927   1.110       .  S
C1924      H1928   1.096       .  S
C1924      H1929   1.111       .  S
C1924      H1930   1.111   1_655  S
C1931      C2257   1.516       .  S
C1931      C2302   1.516   1_565  S
C1932      C2273   1.526       .  S
C1932      C2286   1.520       .  S
Zn1933     O1937   1.916       .  S
Zn1933     O1938   1.938   1_655  S
Zn1933     O1942   1.861       .  S
Zn1933     O1949   2.010   1_655  S
Zn1934     O1939   2.056       .  S
Zn1934     O1941   2.131       .  S
Zn1934     O1945   2.072       .  S
Zn1935     O1937   1.972       .  S
Zn1935     O1940   2.077       .  S
Zn1935     O1943   2.057       .  S
Zn1935     O1946   2.124       .  S
Zn1936     O1944   1.973       .  S
Zn1936     O1947   1.886       .  S
Zn1936     O1948   2.081       .  S
O1939      C1951   1.280       .  A
O1940      C1952   1.287       .  A
O1941      C1950   1.282       .  A
O1942      C1952   1.258       .  A
O1945      C1954   1.285       .  A
O1946      C1953   1.283       .  A
O1947      C1954   1.263       .  A
O1949      C1955   1.268       .  A
C1950      C2305   1.513       .  S
C1951      C2238   1.494       .  S
C1952      C2190   1.457       .  S
C1953      C2289   1.514       .  S
C1954      C2206   1.454       .  S
C1955      C2225   1.503   1_455  S
Zn1956     O1960   1.935       .  S
Zn1956     O1961   2.015       .  S
Zn1956     O1965   1.923       .  S
Zn1956     O1972   2.047       .  S
Zn1957     O2732   1.976       .  S
Zn1957     O1962   2.090       .  S
Zn1957     O1964   2.115       .  S
Zn1957     O1968   2.085       .  S
Zn1958     O1960   1.983       .  S
Zn1958     O1963   2.070       .  S
Zn1958     O1966   2.033       .  S
Zn1958     O1969   2.146       .  S
Zn1959     O2732   1.916       .  S
Zn1959     O1967   1.975       .  S
Zn1959     O1970   1.924       .  S
Zn1959     O1971   2.041       .  S
O1960     Zn2729   1.976       .  S
O1960     Zn2731   1.916       .  S
O1961      C1973   1.270       .  A
O1962      C1974   1.283       .  A
O1963      C1975   1.283       .  A
O1964      C2745   1.281       .  A
O1965      C1975   1.269       .  A
O1966      C2746   1.276       .  A
O1967      C1976   1.268   1_545  A
O1968      C1977   1.287       .  A
O1969      C2748   1.288       .  A
O1970      C1977   1.265       .  A
O1971      C2750   1.273   1_545  A
O1972      C1978   1.272       .  A
C1973      O2736   1.281       .  A
C1973      C2270   1.525       .  S
C1974      O2738   1.276   1_545  A
C1974      C2174   1.514       .  S
C1975      C2126   1.481       .  S
C1976      O2741   1.288       .  A
C1976      C2254   1.515       .  S
C1977      C2142   1.461       .  S
C1978      O2743   1.273       .  A
C1978      C2158   1.512       .  S
C1979      C2113   1.497       .  S
C1979      C2177   1.526       .  S
C1979      C2366   1.382   1_545  D
C1980      C2094   1.496       .  S
C1980      C2161   1.519       .  S
C1980      C2365   1.382   1_556  D
C1981      C2081   1.497       .  S
C1981      C2241   1.515       .  S
C1982      C2065   1.500       .  S
C1982      C2222   1.522       .  S
Zn1983     O1988   2.051       .  S
Zn1983     O1992   2.050       .  S
Zn1983     O1999   2.023       .  S
Zn1984     O1987   1.919       .  S
Zn1984     O1989   1.942       .  S
Zn1984     O1991   1.967       .  S
Zn1984     O1995   2.033       .  S
Zn1985     O1987   1.953       .  S
Zn1985     O1990   2.015       .  S
Zn1985     O1993   1.928       .  S
Zn1985     O1996   2.037       .  S
Zn1986     O1994   1.987       .  S
Zn1986     O1997   2.002       .  S
Zn1986     O1998   1.955       .  S
O1989      C2001   1.267       .  A
O1991      C2000   1.271       .  A
O1992      C2002   1.274       .  A
O1993      C2001   1.267       .  A
O1994      C2003   1.269       .  A
O1995      C2004   1.271       .  A
O1998      C2005   1.266       .  A
O1999      C2005   1.276       .  A
C2000      C2110   1.486       .  S
C2001      C2046   1.420       .  S
C2002      C2062   1.484       .  S
C2003      C2097   1.496       .  S
C2004      C2078   1.481       .  S
C2005      C2030   1.490       .  S
Zn2006     O2010   1.849       .  S
Zn2006     O2011   2.004       .  S
Zn2006     O2015   1.959       .  S
Zn2006     O2022   1.975       .  S
Zn2007     O2010   1.797       .  S
Zn2007     O2012   2.055       .  S
Zn2007     O2014   1.916       .  S
Zn2007     O2018   1.875       .  S
Zn2008     O2010   1.842       .  S
Zn2008     O2013   1.894       .  S
Zn2008     O2016   1.961       .  S
Zn2008     O2019   1.953       .  S
Zn2009     O2010   1.876       .  S
Zn2009     O2017   2.007       .  S
Zn2009     O2020   2.062       .  S
Zn2009     O2021   2.023       .  S
O2011      C2023   1.272       .  A
O2012      C2024   1.274       .  A
O2013      C2025   1.261       .  A
O2014      C2023   1.270       .  A
O2015      C2025   1.268       .  A
O2016      C2024   1.261       .  A
O2017      C2026   1.284       .  A
O2018      C2027   1.266       .  A
O2019      C2026   1.269       .  A
O2020      C2027   1.278       .  A
O2021      C2028   1.273       .  A
O2022      C2028   1.278       .  A
C2023      C2209   1.465       .  S
C2024      C2145   1.476       .  S
C2025      C2049   1.420       .  S
C2026      C2193   1.463       .  S
C2027      C2033   1.492       .  S
C2028      C2129   1.464       .  S
C2029      C2030   1.420       .  A
C2029      C2034   1.412       .  A
C2029      H2036   1.079       .  S
C2030      C2031   1.437       .  A
C2031      C2032   1.421       .  A
C2031      C2038   1.514       .  S
C2032      C2033   1.413       .  A
C2032      H2037   1.084       .  S
C2033      C2034   1.395       .  A
C2034      C2035   1.498       .  S
C2035      H2039   1.107       .  S
C2035      H2040   1.111       .  S
C2035      H2041   1.111       .  S
C2038      H2042   1.103       .  S
C2038      H2043   1.110       .  S
C2038      H2044   1.111       .  S
C2045      C2046   1.394       .  A
C2045      C2050   1.384       .  A
C2045      H2052   1.085       .  S
C2046      C2047   1.404       .  A
C2047      C2048   1.386       .  A
C2047      C2054   1.508       .  S
C2048      C2049   1.394       .  A
C2048      H2053   1.083       .  S
C2049      C2050   1.406       .  A
C2050      C2051   1.509       .  S
C2051      H2055   1.111       .  S
C2051      H2056   1.110       .  S
C2051      H2057   1.109       .  S
C2054      H2058   1.110       .  S
C2054      H2059   1.111       .  S
C2054      H2060   1.111       .  S
C2061      C2062   1.396       .  A
C2061      C2066   1.400       .  A
C2061      H2068   1.080       .  S
C2063      C2064   1.412       .  A
C2063      C2070   1.505       .  S
C2064      H2069   1.084       .  S
C2065      C2066   1.418       .  A
C2066      C2067   1.507       .  S
C2067      H2071   1.109       .  S
C2067      H2072   1.111       .  S
C2067      H2073   1.100       .  S
C2070      H2074   1.110       .  S
C2070      H2075   1.110       .  S
C2070      H2076   1.111       .  S
C2077      C2078   1.402       .  A
C2077      C2082   1.408       .  A
C2077      H2084   1.084       .  S
C2079      C2080   1.403       .  A
C2079      C2086   1.508       .  S
C2080      H2085   1.081       .  S
C2081      C2082   1.418       .  A
C2082      C2083   1.505       .  S
C2083      H2087   1.111       .  S
C2083      H2088   1.105       .  S
C2083      H2089   1.104       .  S
C2086      H2090   1.110   1_554  S
C2086      H2091   1.111       .  S
C2086      H2092   1.111       .  S
C2093      C2098   1.412       .  A
C2093      H2100   1.084       .  S
C2094      C2095   1.416       .  A
C2095      C2096   1.394       .  A
C2095      C2102   1.511       .  S
C2096      C2097   1.406       .  A
C2096      H2101   1.082       .  S
C2098      C2099   1.506       .  S
C2099      H2103   1.111       .  S
C2099      H2104   1.110       .  S
C2099      H2105   1.110       .  S
C2102      H2106   1.107       .  S
C2102      H2107   1.105       .  S
C2102      H2108   1.111       .  S
C2109      C2110   1.403       .  A
C2109      C2114   1.393       .  A
C2109      H2116   1.085       .  S
C2110      C2111   1.416       .  A
C2111      C2112   1.410       .  A
C2111      C2118   1.506       .  S
C2112      C2113   1.408       .  A
C2112      H2117   1.084       .  S
C2113      C2114   1.415       .  A
C2114      C2115   1.506       .  S
C2115      H2119   1.111       .  S
C2115      H2120   1.110       .  S
C2118      H2122   1.110       .  S
C2118      H2124   1.111       .  S
C2125      C2126   1.416       .  A
C2125      C2130   1.395       .  A
C2125      H2132   1.085       .  S
C2126      C2127   1.411       .  A
C2127      C2128   1.411       .  A
C2127      C2134   1.504       .  S
C2128      C2129   1.409       .  A
C2128      H2133   1.082       .  S
C2129      C2130   1.398       .  A
C2130      C2131   1.501       .  S
C2131      H2135   1.108       .  S
C2131      H2136   1.111       .  S
C2131      H2137   1.111       .  S
C2134      H2138   1.110       .  S
C2134      H2139   1.110       .  S
C2134      H2140   1.110       .  S
C2141      C2142   1.399       .  A
C2141      C2146   1.398       .  A
C2141      H2148   1.085       .  S
C2142      C2143   1.411       .  A
C2143      C2144   1.405       .  A
C2143      C2150   1.507       .  S
C2144      C2145   1.405       .  A
C2144      H2149   1.084       .  S
C2145      C2146   1.417       .  A
C2146      C2147   1.508       .  S
C2147      H2151   1.111       .  S
C2147      H2152   1.110       .  S
C2147      H2153   1.110       .  S
C2150      H2154   1.110       .  S
C2150      H2155   1.110       .  S
C2150      H2156   1.109       .  S
C2157      C2930   1.411   1_545  A
C2157      C2162   1.410       .  A
C2157      H2164   1.084       .  S
C2158      C2929   1.411       .  A
C2158      C2159   1.423       .  A
C2159      C2160   1.412       .  A
C2159      C2166   1.508       .  S
C2160      C2161   1.407       .  A
C2160      H2165   1.084       .  S
C2161      C2934   1.420       .  A
C2162      C2933   1.420   1_545  A
C2162      C2163   1.505       .  S
C2163      H2167   1.111       .  S
C2163      H2168   1.110       .  S
C2163      H2169   1.103       .  S
C2166      H2170   1.110       .  S
C2166      H2171   1.110       .  S
C2166      H2172   1.111       .  S
C2173      C2174   1.410   1_565  A
C2173      C2178   1.412       .  A
C2173      H2180   1.084       .  S
C2174      C2947   1.419       .  A
C2175      C2946   1.419       .  A
C2175      C2176   1.414       .  A
C2175      C2182   1.507       .  S
C2176      C2949   1.411       .  A
C2176      H2181   1.084       .  S
C2177      C2948   1.411       .  A
C2177      C2178   1.424   1_545  A
C2178      C2179   1.504       .  S
C2179      H2183   1.110       .  S
C2179      H2184   1.099       .  S
C2179      H2185   1.111       .  S
C2182      H2186   1.110       .  S
C2182      H2187   1.110       .  S
C2182      H2188   1.111       .  S
C2189      C2190   1.415       .  A
C2189      C2194   1.392       .  A
C2189      H2196   1.084       .  S
C2190      C2191   1.409       .  A
C2191      C2192   1.404       .  A
C2191      C2198   1.504       .  S
C2192      C2193   1.406       .  A
C2192      H2197   1.084       .  S
C2193      C2194   1.398       .  A
C2194      C2195   1.504       .  S
C2195      H2199   1.111       .  S
C2195      H2200   1.108       .  S
C2195      H2201   1.110       .  S
C2198      H2202   1.110       .  S
C2198      H2203   1.109       .  S
C2198      H2204   1.111       .  S
C2205      C2206   1.400       .  A
C2205      C2210   1.404       .  A
C2205      H2212   1.084       .  S
C2206      C2207   1.414       .  A
C2207      C2208   1.388       .  A
C2207      C2214   1.514       .  S
C2208      C2209   1.400       .  A
C2208      H2213   1.086       .  S
C2209      C2210   1.418       .  A
C2210      C2211   1.506       .  S
C2211      H2215   1.111       .  S
C2211      H2216   1.106       .  S
C2211      H2217   1.110       .  S
C2214      H2218   1.110       .  S
C2214      H2219   1.106       .  S
C2214      H2220   1.111       .  S
C2221      C2226   1.416       .  A
C2221      H2228   1.082       .  S
C2222      C2223   1.421       .  A
C2223      C2224   1.407       .  A
C2223      C2230   1.507       .  S
C2224      C2225   1.405       .  A
C2224      H2229   1.084       .  S
C2226      C2227   1.504       .  S
C2227      H2231   1.111       .  S
C2227      H2232   1.109       .  S
C2227      H2233   1.108       .  S
C2230      H2234   1.107       .  S
C2230      H2235   1.109       .  S
C2230      H2236   1.111       .  S
C2237      C2238   1.405       .  A
C2237      C2242   1.413       .  A
C2237      H2244   1.085       .  S
C2239      C2240   1.410       .  A
C2239      C2246   1.507   1_655  S
C2240      H2245   1.078   1_655  S
C2241      C2242   1.422       .  A
C2242      C2243   1.503       .  S
C2243      H2247   1.110       .  S
C2243      H2248   1.101       .  S
C2243      H2249   1.110       .  S
C2246      H2250   1.111   1_455  S
C2246      H2251   1.110       .  S
C2246      H2252   1.111       .  S
C2253      C3026   1.412       .  A
C2253      C2258   1.426       .  A
C2253      H2260   1.083       .  S
C2254      C3025   1.412       .  A
C2254      C2255   1.426       .  A
C2255      C2256   1.403       .  A
C2255      C2262   1.512   1_565  S
C2256      C2257   1.401       .  A
C2256      H2261   1.082   1_565  S
C2257      C3030   1.420       .  A
C2258      C3029   1.420       .  A
C2258      C2259   1.504       .  S
C2259      H2263   1.110       .  S
C2259      H2264   1.108       .  S
C2259      H2265   1.107       .  S
C2262      H2266   1.109       .  S
C2262      H2267   1.111   1_545  S
C2262      H2268   1.111       .  S
C2269      C3042   1.415       .  A
C2269      C2274   1.424       .  A
C2269      H2276   1.084       .  S
C2270      C3041   1.415       .  A
C2270      C2271   1.428       .  A
C2271      C2272   1.408       .  A
C2271      C2278   1.511       .  S
C2272      C2273   1.404       .  A
C2272      H2277   1.078       .  S
C2273      C3046   1.421       .  A
C2274      C3045   1.421   1_545  A
C2274      C2275   1.505       .  S
C2275      H2279   1.110   1_545  S
C2275      H2280   1.107       .  S
C2275      H2281   1.110       .  S
C2278      H2282   1.110       .  S
C2278      H2283   1.110       .  S
C2278      H2284   1.111       .  S
C2285      C2286   1.413       .  A
C2285      C2290   1.420       .  A
C2285      H2292   1.084       .  S
C2287      C2288   1.407       .  A
C2287      C2294   1.507       .  S
C2288      H2293   1.084       .  S
C2289      C2290   1.419       .  A
C2290      C2291   1.504       .  S
C2291      H2295   1.111       .  S
C2291      H2296   1.110       .  S
C2291      H2297   1.110       .  S
C2294      H2298   1.099       .  S
C2294      H2299   1.098       .  S
C2294      H2300   1.111       .  S
C2301      C2302   1.414       .  A
C2301      C2306   1.419       .  A
C2301      H2308   1.081       .  S
C2303      C2304   1.402       .  A
C2303      C2310   1.504   1_455  S
C2304      H2309   1.084       .  S
C2305      C2306   1.417       .  A
C2306      C2307   1.505       .  S
C2307      H2311   1.111       .  S
C2307      H2312   1.110       .  S
C2307      H2313   1.110       .  S
C2310      H2314   1.096       .  S
C2310      H2315   1.111       .  S
C2310      H2316   1.111   1_655  S
C2317      C2643   1.516       .  S
C2317      C2688   1.516       .  S
C2318      C2659   1.526       .  S
C2318      C2672   1.520       .  S
Zn2319     O2323   1.916       .  S
Zn2319     O2324   1.937   1_655  S
Zn2319     O2328   1.861       .  S
Zn2319     O2335   2.010   1_655  S
Zn2320     O2325   2.056       .  S
Zn2320     O2327   2.131       .  S
Zn2320     O2331   2.072       .  S
Zn2321     O2323   1.972       .  S
Zn2321     O2326   2.077       .  S
Zn2321     O2329   2.057       .  S
Zn2321     O2332   2.124       .  S
Zn2322     O2330   1.973       .  S
Zn2322     O2333   1.886       .  S
Zn2322     O2334   2.081       .  S
O2325      C2337   1.280       .  A
O2326      C2338   1.287       .  A
O2327      C2336   1.282       .  A
O2328      C2338   1.258       .  A
O2331      C2340   1.285       .  A
O2332      C2339   1.283       .  A
O2333      C2340   1.263       .  A
O2335      C2341   1.268       .  A
C2336      C2691   1.513       .  S
C2337      C2624   1.494       .  S
C2338      C2576   1.457       .  S
C2339      C2675   1.514       .  S
C2340      C2592   1.454       .  S
C2341      C2611   1.503   1_455  S
Zn2342     O2346   1.935   1_565  S
Zn2342     O2347   2.015   1_565  S
Zn2342     O2351   1.923       .  S
Zn2342     O2358   2.047       .  S
Zn2343     O2348   2.090       .  S
Zn2343     O2350   2.115       .  S
Zn2343     O2354   2.085       .  S
Zn2344     O2346   1.983   1_565  S
Zn2344     O2349   2.070       .  S
Zn2344     O2352   2.033       .  S
Zn2344     O2355   2.146       .  S
Zn2345     O2353   1.975       .  S
Zn2345     O2356   1.924       .  S
Zn2345     O2357   2.041       .  S
O2347      C2359   1.270       .  A
O2348      C2360   1.283       .  A
O2349      C2361   1.283       .  A
O2351      C2361   1.269       .  A
O2353      C2362   1.268       .  A
O2354      C2363   1.287       .  A
O2356      C2363   1.265       .  A
O2358      C2364   1.272       .  A
C2359      C2656   1.525       .  S
C2360      C2560   1.514       .  S
C2361      C2512   1.481       .  S
C2362      C2640   1.515       .  S
C2363      C2528   1.461       .  S
C2364      C2544   1.512       .  S
C2365      C2499   1.497   1_554  S
C2365      C2563   1.526       .  S
C2366      C2480   1.496       .  S
C2366      C2547   1.519       .  S
C2367      C2467   1.497   1_554  S
C2367      C2627   1.515       .  S
C2368      C2451   1.500       .  S
C2368      C2608   1.522       .  S
Zn2369     O2759   1.996       .  S
Zn2369     O2374   2.051       .  S
Zn2369     O2378   2.050       .  S
Zn2369     O2385   2.023       .  S
Zn2370     O2373   1.919   1_554  S
Zn2370     O2375   1.942       .  S
Zn2370     O2377   1.967   1_554  S
Zn2370     O2381   2.033       .  S
Zn2371     O2373   1.953   1_554  S
Zn2371     O2376   2.015       .  S
Zn2371     O2379   1.928       .  S
Zn2371     O2382   2.037       .  S
Zn2372     O2759   1.952       .  S
Zn2372     O2380   1.987       .  S
Zn2372     O2383   2.002       .  S
Zn2372     O2384   1.955       .  S
O2373     Zn2755   1.996       .  S
O2373     Zn2758   1.952       .  S
O2374      C2772   1.277       .  A
O2375      C2387   1.267       .  A
O2376      C2774   1.272   1_554  A
O2377      C2386   1.271       .  A
O2378      C2388   1.274       .  A
O2379      C2387   1.267       .  A
O2380      C2389   1.269       .  A
O2381      C2390   1.271   1_554  A
O2382      C2775   1.271   1_554  A
O2383      C2776   1.268       .  A
O2384      C2391   1.266       .  A
O2385      C2391   1.276       .  A
C2386      O2760   1.277       .  A
C2386      C2496   1.486       .  S
C2387      C2432   1.420       .  S
C2388      O2762   1.272       .  A
C2388      C2448   1.484       .  S
C2389      O2768   1.271       .  A
C2389      C2483   1.496       .  S
C2390      O2769   1.268       .  A
C2390      C2464   1.481       .  S
C2391      C2416   1.490       .  S
Zn2392     O2396   1.849       .  S
Zn2392     O2397   2.004       .  S
Zn2392     O2401   1.959       .  S
Zn2392     O2408   1.975       .  S
Zn2393     O2396   1.797       .  S
Zn2393     O2398   2.055       .  S
Zn2393     O2400   1.916       .  S
Zn2393     O2404   1.875       .  S
Zn2394     O2396   1.842       .  S
Zn2394     O2399   1.894       .  S
Zn2394     O2402   1.961       .  S
Zn2394     O2405   1.953       .  S
Zn2395     O2396   1.876       .  S
Zn2395     O2403   2.008       .  S
Zn2395     O2406   2.062       .  S
Zn2395     O2407   2.023       .  S
O2397      C2409   1.272       .  A
O2398      C2410   1.274       .  A
O2399      C2411   1.261       .  A
O2400      C2409   1.270       .  A
O2401      C2411   1.268       .  A
O2402      C2410   1.261       .  A
O2403      C2412   1.284       .  A
O2404      C2413   1.266       .  A
O2405      C2412   1.269       .  A
O2406      C2413   1.278       .  A
O2407      C2414   1.273       .  A
O2408      C2414   1.278       .  A
C2409      C2595   1.465       .  S
C2410      C2531   1.476       .  S
C2411      C2435   1.420       .  S
C2412      C2579   1.463       .  S
C2413      C2419   1.492       .  S
C2414      C2515   1.464       .  S
C2415      C2416   1.420       .  A
C2415      C2420   1.412       .  A
C2415      H2422   1.079       .  S
C2416      C2417   1.437       .  A
C2417      C2418   1.421       .  A
C2417      C2424   1.514       .  S
C2418      C2419   1.413       .  A
C2418      H2423   1.084       .  S
C2419      C2420   1.395       .  A
C2420      C2421   1.498       .  S
C2421      H2425   1.107       .  S
C2421      H2426   1.111       .  S
C2421      H2427   1.111       .  S
C2424      H2428   1.103       .  S
C2424      H2429   1.110       .  S
C2424      H2430   1.111       .  S
C2431      C2432   1.394       .  A
C2431      C2436   1.384       .  A
C2431      H2438   1.085       .  S
C2432      C2433   1.404       .  A
C2433      C2434   1.386       .  A
C2433      C2440   1.508       .  S
C2434      C2435   1.394       .  A
C2434      H2439   1.083       .  S
C2435      C2436   1.406       .  A
C2436      C2437   1.509       .  S
C2437      H2441   1.111       .  S
C2437      H2442   1.110       .  S
C2437      H2443   1.109       .  S
C2440      H2444   1.110       .  S
C2440      H2445   1.111       .  S
C2440      H2446   1.111       .  S
C2447      C2448   1.396       .  A
C2447      C2452   1.400       .  A
C2447      H2454   1.080       .  S
C2448      C2835   1.413       .  A
C2449      C2834   1.413   1_554  A
C2449      C2450   1.412   1_554  A
C2449      C2456   1.505       .  S
C2450      C2837   1.410       .  A
C2450      H2455   1.084   1_556  S
C2451      C2836   1.410       .  A
C2451      C2452   1.418       .  A
C2452      C2453   1.507       .  S
C2453      H2457   1.109       .  S
C2453      H2458   1.111       .  S
C2453      H2459   1.100       .  S
C2456      H2460   1.110   1_554  S
C2456      H2461   1.110       .  S
C2456      H2462   1.111       .  S
C2463      C2464   1.402       .  A
C2463      C2468   1.408       .  A
C2463      H2470   1.084       .  S
C2464      C2851   1.414   1_556  A
C2465      C2850   1.414       .  A
C2465      C2466   1.403       .  A
C2465      C2472   1.508       .  S
C2466      C2853   1.404       .  A
C2466      H2471   1.081       .  S
C2467      C2852   1.404   1_556  A
C2467      C2468   1.418       .  A
C2468      C2469   1.505       .  S
C2469      H2473   1.111       .  S
C2469      H2474   1.105       .  S
C2469      H2475   1.104       .  S
C2472      H2476   1.110       .  S
C2472      H2477   1.111       .  S
C2472      H2478   1.111       .  S
C2479      C2866   1.406   1_554  A
C2479      C2484   1.412       .  A
C2479      H2486   1.084       .  S
C2480      C2865   1.406       .  A
C2480      C2481   1.416       .  A
C2481      C2482   1.394       .  A
C2481      C2488   1.511       .  S
C2482      C2483   1.406       .  A
C2482      H2487   1.082       .  S
C2483      C2870   1.420       .  A
C2484      C2869   1.420   1_554  A
C2484      C2485   1.506       .  S
C2485      H2489   1.111       .  S
C2485      H2490   1.110       .  S
C2485      H2491   1.110       .  S
C2488      H2492   1.107       .  S
C2488      H2493   1.105       .  S
C2488      H2494   1.111       .  S
C2495      C2496   1.403       .  A
C2495      C2500   1.393   1_556  A
C2495      H2502   1.085   1_556  S
C2496      C2497   1.416       .  A
C2497      C2498   1.410       .  A
C2497      C2504   1.506       .  S
C2498      C2499   1.408       .  A
C2498      H2503   1.084       .  S
C2499      C2500   1.415   1_556  A
C2500      C2501   1.506       .  S
C2501      H2505   1.111       .  S
C2501      H2506   1.110       .  S
C2501      H2893   1.097       .  S
C2504      H2508   1.110       .  S
C2504      H2895   1.110       .  S
C2504      H2510   1.111       .  S
H2507      C2887   1.097       .  S
H2509      C2890   1.110       .  S
C2511      C2512   1.416       .  A
C2511      C2516   1.395       .  A
C2511      H2518   1.085       .  S
C2512      C2513   1.411       .  A
C2513      C2514   1.411       .  A
C2513      C2520   1.504       .  S
C2514      C2515   1.409       .  A
C2514      H2519   1.082       .  S
C2515      C2516   1.398       .  A
C2516      C2517   1.501       .  S
C2517      H2521   1.108       .  S
C2517      H2522   1.111       .  S
C2517      H2523   1.111       .  S
C2520      H2524   1.110       .  S
C2520      H2525   1.110       .  S
C2520      H2526   1.110       .  S
C2527      C2528   1.399       .  A
C2527      C2532   1.398       .  A
C2527      H2534   1.085       .  S
C2528      C2529   1.411       .  A
C2529      C2530   1.405       .  A
C2529      C2536   1.507       .  S
C2530      C2531   1.405       .  A
C2530      H2535   1.084       .  S
C2531      C2532   1.417       .  A
C2532      C2533   1.508       .  S
C2533      H2537   1.111       .  S
C2533      H2538   1.110       .  S
C2533      H2539   1.110       .  S
C2536      H2540   1.110       .  S
C2536      H2541   1.110       .  S
C2536      H2542   1.109       .  S
C2543      C2548   1.410       .  A
C2543      H2550   1.084       .  S
C2544      C2545   1.423       .  A
C2545      C2546   1.412       .  A
C2545      C2552   1.508       .  S
C2546      C2547   1.407       .  A
C2546      H2551   1.084       .  S
C2548      C2549   1.505       .  S
C2549      H2553   1.111       .  S
C2549      H2554   1.110       .  S
C2549      H2555   1.103       .  S
C2552      H2556   1.110       .  S
C2552      H2557   1.110       .  S
C2552      H2558   1.111       .  S
C2559      C2560   1.410       .  A
C2559      C2564   1.412       .  A
C2559      H2566   1.084       .  S
C2561      C2562   1.414       .  A
C2561      C2568   1.507       .  S
C2562      H2567   1.084       .  S
C2563      C2564   1.424       .  A
C2564      C2565   1.504       .  S
C2565      H2569   1.110       .  S
C2565      H2570   1.099       .  S
C2565      H2571   1.111       .  S
C2568      H2572   1.110       .  S
C2568      H2573   1.110       .  S
C2568      H2574   1.111       .  S
C2575      C2576   1.415       .  A
C2575      C2580   1.392       .  A
C2575      H2582   1.084       .  S
C2576      C2577   1.409       .  A
C2577      C2578   1.404       .  A
C2577      C2584   1.504       .  S
C2578      C2579   1.406       .  A
C2578      H2583   1.084       .  S
C2579      C2580   1.398       .  A
C2580      C2581   1.504       .  S
C2581      H2585   1.111       .  S
C2581      H2586   1.108       .  S
C2581      H2587   1.110       .  S
C2584      H2588   1.110       .  S
C2584      H2589   1.109       .  S
C2584      H2590   1.111       .  S
C2591      C2592   1.400       .  A
C2591      C2596   1.404       .  A
C2591      H2598   1.084       .  S
C2592      C2593   1.414       .  A
C2593      C2594   1.388       .  A
C2593      C2600   1.514       .  S
C2594      C2595   1.400       .  A
C2594      H2599   1.086       .  S
C2595      C2596   1.418       .  A
C2596      C2597   1.506       .  S
C2597      H2601   1.111       .  S
C2597      H2602   1.106       .  S
C2597      H2603   1.110       .  S
C2600      H2604   1.110       .  S
C2600      H2605   1.106       .  S
C2600      H2606   1.111       .  S
C2607      C2612   1.416       .  A
C2607      H2614   1.082       .  S
C2608      C2609   1.421       .  A
C2609      C2610   1.407       .  A
C2609      C2616   1.507       .  S
C2610      C2611   1.405       .  A
C2610      H2615   1.084       .  S
C2612      C2613   1.504       .  S
C2613      H2617   1.111       .  S
C2613      H2618   1.109       .  S
C2613      H2619   1.108       .  S
C2616      H2620   1.107       .  S
C2616      H2621   1.109       .  S
C2616      H2622   1.111       .  S
C2623      C2624   1.405       .  A
C2623      C2628   1.413       .  A
C2623      H2630   1.085       .  S
C2625      C2626   1.410       .  A
C2625      C2632   1.507   1_655  S
C2626      H2631   1.078   1_655  S
C2627      C2628   1.422       .  A
C2628      C2629   1.503       .  S
C2629      H2633   1.110       .  S
C2629      H2634   1.101       .  S
C2629      H2635   1.110       .  S
C2632      H2636   1.111   1_455  S
C2632      H2637   1.110       .  S
C2632      H2638   1.111       .  S
C2639      C2644   1.426       .  A
C2639      H2646   1.083       .  S
C2640      C2641   1.426       .  A
C2641      C2642   1.403       .  A
C2641      C2648   1.512       .  S
C2642      C2643   1.401       .  A
C2642      H2647   1.082       .  S
C2644      C2645   1.504       .  S
C2645      H2649   1.110       .  S
C2645      H2650   1.108       .  S
C2645      H2651   1.107       .  S
C2648      H2652   1.109       .  S
C2648      H2653   1.111       .  S
C2648      H2654   1.111       .  S
C2655      C2660   1.424       .  A
C2655      H2662   1.084       .  S
C2656      C2657   1.428   1_545  A
C2657      C2658   1.408       .  A
C2657      C2664   1.511       .  S
C2658      C2659   1.404       .  A
C2658      H2663   1.078       .  S
C2660      C2661   1.505       .  S
C2661      H2665   1.110       .  S
C2661      H2666   1.107       .  S
C2661      H2667   1.110       .  S
C2664      H2668   1.110       .  S
C2664      H2669   1.110   1_565  S
C2664      H2670   1.111       .  S
C2671      C2672   1.413       .  A
C2671      C2676   1.420       .  A
C2671      H2678   1.084       .  S
C2673      C2674   1.407       .  A
C2673      C2680   1.507       .  S
C2674      H2679   1.084       .  S
C2675      C2676   1.419       .  A
C2676      C2677   1.504       .  S
C2677      H2681   1.111       .  S
C2677      H2682   1.110       .  S
C2677      H2683   1.110       .  S
C2680      H2684   1.099       .  S
C2680      H2685   1.098       .  S
C2680      H2686   1.111       .  S
C2687      C2688   1.414       .  A
C2687      C2692   1.419       .  A
C2687      H2694   1.081       .  S
C2689      C2690   1.402       .  A
C2689      C2696   1.504   1_455  S
C2690      H2695   1.084       .  S
C2691      C2692   1.417       .  A
C2692      C2693   1.505       .  S
C2693      H2697   1.111       .  S
C2693      H2698   1.110       .  S
C2693      H2699   1.110       .  S
C2696      H2700   1.096       .  S
C2696      H2701   1.111       .  S
C2696      H2702   1.111   1_655  S
C2703      C3029   1.516       .  S
C2703      C3074   1.516       .  S
C2704      C3045   1.526       .  S
C2704      C3058   1.520       .  S
Zn2705     O2709   1.916       .  S
Zn2705     O2710   1.938   1_655  S
Zn2705     O2714   1.861       .  S
Zn2705     O2721   2.010   1_655  S
Zn2706     O2711   2.056       .  S
Zn2706     O2713   2.131       .  S
Zn2706     O2717   2.072       .  S
Zn2707     O2709   1.972       .  S
Zn2707     O2712   2.077       .  S
Zn2707     O2715   2.057       .  S
Zn2707     O2718   2.124       .  S
Zn2708     O2716   1.973       .  S
Zn2708     O2719   1.886       .  S
Zn2708     O2720   2.081       .  S
O2711      C2723   1.280       .  A
O2712      C2724   1.287       .  A
O2713      C2722   1.282       .  A
O2714      C2724   1.258       .  A
O2717      C2726   1.285       .  A
O2718      C2725   1.283       .  A
O2719      C2726   1.263       .  A
O2721      C2727   1.268       .  A
C2722      C3077   1.513       .  S
C2723      C3010   1.494       .  S
C2724      C2962   1.457       .  S
C2725      C3061   1.514       .  S
C2726      C2978   1.454       .  S
C2727      C2997   1.503   1_455  S
Zn2728     O2732   1.935   1_565  S
Zn2728     O2733   2.015   1_565  S
Zn2728     O2737   1.923       .  S
Zn2728     O2744   2.047       .  S
Zn2729     O2734   2.090       .  S
Zn2729     O2736   2.115       .  S
Zn2729     O2740   2.085       .  S
Zn2730     O2732   1.983   1_565  S
Zn2730     O2735   2.070       .  S
Zn2730     O2738   2.033       .  S
Zn2730     O2741   2.146       .  S
Zn2731     O2739   1.975       .  S
Zn2731     O2742   1.924       .  S
Zn2731     O2743   2.041       .  S
O2733      C2745   1.270       .  A
O2734      C2746   1.283       .  A
O2735      C2747   1.283       .  A
O2737      C2747   1.269       .  A
O2739      C2748   1.268       .  A
O2740      C2749   1.287       .  A
O2742      C2749   1.265       .  A
O2744      C2750   1.272       .  A
C2745      C3042   1.525       .  S
C2746      C2946   1.514       .  S
C2747      C2898   1.481       .  S
C2748      C3026   1.515       .  S
C2749      C2914   1.461       .  S
C2750      C2930   1.512       .  S
C2751      C2885   1.497       .  S
C2751      C2949   1.526       .  S
C2752      C2866   1.496       .  S
C2752      C2933   1.519       .  S
C2753      C2853   1.497       .  S
C2753      C3013   1.515       .  S
C2754      C2837   1.500       .  S
C2754      C2994   1.522       .  S
Zn2755     O2760   2.051       .  S
Zn2755     O2764   2.050       .  S
Zn2755     O2771   2.023       .  S
Zn2756     O2759   1.919       .  S
Zn2756     O2761   1.942       .  S
Zn2756     O2763   1.967       .  S
Zn2756     O2767   2.033       .  S
Zn2757     O2759   1.953       .  S
Zn2757     O2762   2.015       .  S
Zn2757     O2765   1.928       .  S
Zn2757     O2768   2.037       .  S
Zn2758     O2766   1.987       .  S
Zn2758     O2769   2.002       .  S
Zn2758     O2770   1.955       .  S
O2761      C2773   1.267       .  A
O2763      C2772   1.271       .  A
O2764      C2774   1.274       .  A
O2765      C2773   1.267       .  A
O2766      C2775   1.269       .  A
O2767      C2776   1.271       .  A
O2770      C2777   1.266       .  A
O2771      C2777   1.276       .  A
C2772      C2882   1.486       .  S
C2773      C2818   1.420       .  S
C2774      C2834   1.484       .  S
C2775      C2869   1.496       .  S
C2776      C2850   1.481       .  S
C2777      C2802   1.490       .  S
Zn2778     O2782   1.849       .  S
Zn2778     O2783   2.004       .  S
Zn2778     O2787   1.959       .  S
Zn2778     O2794   1.975       .  S
Zn2779     O2782   1.797       .  S
Zn2779     O2784   2.055       .  S
Zn2779     O2786   1.916       .  S
Zn2779     O2790   1.875       .  S
Zn2780     O2782   1.842       .  S
Zn2780     O2785   1.894       .  S
Zn2780     O2788   1.961       .  S
Zn2780     O2791   1.953       .  S
Zn2781     O2782   1.876       .  S
Zn2781     O2789   2.007       .  S
Zn2781     O2792   2.062       .  S
Zn2781     O2793   2.023       .  S
O2783      C2795   1.272       .  A
O2784      C2796   1.274       .  A
O2785      C2797   1.261       .  A
O2786      C2795   1.270       .  A
O2787      C2797   1.268       .  A
O2788      C2796   1.261       .  A
O2789      C2798   1.284       .  A
O2790      C2799   1.266       .  A
O2791      C2798   1.269       .  A
O2792      C2799   1.278       .  A
O2793      C2800   1.273       .  A
O2794      C2800   1.278       .  A
C2795      C2981   1.465       .  S
C2796      C2917   1.476       .  S
C2797      C2821   1.420       .  S
C2798      C2965   1.463       .  S
C2799      C2805   1.492       .  S
C2800      C2901   1.464       .  S
C2801      C2802   1.420       .  A
C2801      C2806   1.412       .  A
C2801      H2808   1.079       .  S
C2802      C2803   1.437       .  A
C2803      C2804   1.421       .  A
C2803      C2810   1.514       .  S
C2804      C2805   1.413       .  A
C2804      H2809   1.084       .  S
C2805      C2806   1.395       .  A
C2806      C2807   1.498       .  S
C2807      H2811   1.107       .  S
C2807      H2812   1.111       .  S
C2807      H2813   1.111       .  S
C2810      H2814   1.103       .  S
C2810      H2815   1.110       .  S
C2810      H2816   1.111       .  S
C2817      C2818   1.394       .  A
C2817      C2822   1.384       .  A
C2817      H2824   1.085       .  S
C2818      C2819   1.404       .  A
C2819      C2820   1.386       .  A
C2819      C2826   1.508       .  S
C2820      C2821   1.394       .  A
C2820      H2825   1.083       .  S
C2821      C2822   1.406       .  A
C2822      C2823   1.509       .  S
C2823      H2827   1.111       .  S
C2823      H2828   1.110       .  S
C2823      H2829   1.109       .  S
C2826      H2830   1.110       .  S
C2826      H2831   1.111       .  S
C2826      H2832   1.111       .  S
C2833      C2834   1.396       .  A
C2833      C2838   1.400       .  A
C2833      H2840   1.080       .  S
C2835      C2836   1.412       .  A
C2835      C2842   1.505       .  S
C2836      H2841   1.084       .  S
C2837      C2838   1.418       .  A
C2838      C2839   1.507       .  S
C2839      H2843   1.109       .  S
C2839      H2844   1.111       .  S
C2839      H2845   1.100       .  S
C2842      H2846   1.110       .  S
C2842      H2847   1.110       .  S
C2842      H2848   1.111       .  S
C2849      C2850   1.402       .  A
C2849      C2854   1.408       .  A
C2849      H2856   1.084       .  S
C2851      C2852   1.403       .  A
C2851      C2858   1.508       .  S
C2852      H2857   1.081       .  S
C2853      C2854   1.418       .  A
C2854      C2855   1.505       .  S
C2855      H2859   1.111       .  S
C2855      H2860   1.105       .  S
C2855      H2861   1.104       .  S
C2858      H2862   1.110   1_554  S
C2858      H2863   1.111       .  S
C2858      H2864   1.111       .  S
C2865      C2870   1.412       .  A
C2865      H2872   1.084       .  S
C2866      C2867   1.416       .  A
C2867      C2868   1.394       .  A
C2867      C2874   1.511       .  S
C2868      C2869   1.406       .  A
C2868      H2873   1.082       .  S
C2870      C2871   1.506       .  S
C2871      H2875   1.111       .  S
C2871      H2876   1.110       .  S
C2871      H2877   1.110       .  S
C2874      H2878   1.107       .  S
C2874      H2879   1.105       .  S
C2874      H2880   1.111       .  S
C2881      C2882   1.403       .  A
C2881      C2886   1.393       .  A
C2881      H2888   1.085       .  S
C2882      C2883   1.416       .  A
C2883      C2884   1.410       .  A
C2883      C2890   1.506       .  S
C2884      C2885   1.408       .  A
C2884      H2889   1.084       .  S
C2885      C2886   1.415       .  A
C2886      C2887   1.506       .  S
C2887      H2891   1.111       .  S
C2887      H2892   1.110       .  S
C2890      H2894   1.110       .  S
C2890      H2896   1.111       .  S
C2897      C2898   1.416       .  A
C2897      C2902   1.395       .  A
C2897      H2904   1.085       .  S
C2898      C2899   1.411       .  A
C2899      C2900   1.411       .  A
C2899      C2906   1.504       .  S
C2900      C2901   1.409       .  A
C2900      H2905   1.082       .  S
C2901      C2902   1.398       .  A
C2902      C2903   1.501       .  S
C2903      H2907   1.108       .  S
C2903      H2908   1.111       .  S
C2903      H2909   1.111       .  S
C2906      H2910   1.110       .  S
C2906      H2911   1.110       .  S
C2906      H2912   1.110       .  S
C2913      C2914   1.399       .  A
C2913      C2918   1.398       .  A
C2913      H2920   1.085       .  S
C2914      C2915   1.411       .  A
C2915      C2916   1.405       .  A
C2915      C2922   1.507       .  S
C2916      C2917   1.405       .  A
C2916      H2921   1.084       .  S
C2917      C2918   1.417       .  A
C2918      C2919   1.508       .  S
C2919      H2923   1.111       .  S
C2919      H2924   1.110       .  S
C2919      H2925   1.110       .  S
C2922      H2926   1.110       .  S
C2922      H2927   1.110       .  S
C2922      H2928   1.109       .  S
C2929      C2934   1.410       .  A
C2929      H2936   1.084       .  S
C2930      C2931   1.423       .  A
C2931      C2932   1.412       .  A
C2931      C2938   1.508       .  S
C2932      C2933   1.407       .  A
C2932      H2937   1.084       .  S
C2934      C2935   1.505       .  S
C2935      H2939   1.111       .  S
C2935      H2940   1.110       .  S
C2935      H2941   1.103       .  S
C2938      H2942   1.110       .  S
C2938      H2943   1.110       .  S
C2938      H2944   1.111       .  S
C2945      C2946   1.410       .  A
C2945      C2950   1.412       .  A
C2945      H2952   1.084       .  S
C2947      C2948   1.414       .  A
C2947      C2954   1.507       .  S
C2948      H2953   1.084       .  S
C2949      C2950   1.424       .  A
C2950      C2951   1.504       .  S
C2951      H2955   1.110       .  S
C2951      H2956   1.099       .  S
C2951      H2957   1.111       .  S
C2954      H2958   1.110       .  S
C2954      H2959   1.110       .  S
C2954      H2960   1.111       .  S
C2961      C2962   1.415       .  A
C2961      C2966   1.392       .  A
C2961      H2968   1.084       .  S
C2962      C2963   1.409       .  A
C2963      C2964   1.404       .  A
C2963      C2970   1.504       .  S
C2964      C2965   1.406       .  A
C2964      H2969   1.084       .  S
C2965      C2966   1.398       .  A
C2966      C2967   1.504       .  S
C2967      H2971   1.111       .  S
C2967      H2972   1.108       .  S
C2967      H2973   1.110       .  S
C2970      H2974   1.110       .  S
C2970      H2975   1.109       .  S
C2970      H2976   1.111       .  S
C2977      C2978   1.400       .  A
C2977      C2982   1.404       .  A
C2977      H2984   1.084       .  S
C2978      C2979   1.414       .  A
C2979      C2980   1.388       .  A
C2979      C2986   1.514       .  S
C2980      C2981   1.400       .  A
C2980      H2985   1.086       .  S
C2981      C2982   1.418       .  A
C2982      C2983   1.506       .  S
C2983      H2987   1.111       .  S
C2983      H2988   1.106       .  S
C2983      H2989   1.110       .  S
C2986      H2990   1.110       .  S
C2986      H2991   1.106       .  S
C2986      H2992   1.111       .  S
C2993      C2998   1.416       .  A
C2993      H3000   1.082       .  S
C2994      C2995   1.421       .  A
C2995      C2996   1.407       .  A
C2995      C3002   1.507       .  S
C2996      C2997   1.405       .  A
C2996      H3001   1.084       .  S
C2998      C2999   1.504       .  S
C2999      H3003   1.111       .  S
C2999      H3004   1.109       .  S
C2999      H3005   1.108       .  S
C3002      H3006   1.107       .  S
C3002      H3007   1.109       .  S
C3002      H3008   1.111       .  S
C3009      C3010   1.405       .  A
C3009      C3014   1.413       .  A
C3009      H3016   1.085       .  S
C3011      C3012   1.410       .  A
C3011      C3018   1.507   1_655  S
C3012      H3017   1.078   1_655  S
C3013      C3014   1.422       .  A
C3014      C3015   1.503       .  S
C3015      H3019   1.110       .  S
C3015      H3020   1.101       .  S
C3015      H3021   1.110       .  S
C3018      H3022   1.111   1_455  S
C3018      H3023   1.110       .  S
C3018      H3024   1.111       .  S
C3025      C3030   1.426       .  A
C3025      H3032   1.083       .  S
C3026      C3027   1.426       .  A
C3027      C3028   1.403       .  A
C3027      C3034   1.512       .  S
C3028      C3029   1.401       .  A
C3028      H3033   1.082       .  S
C3030      C3031   1.504       .  S
C3031      H3035   1.110       .  S
C3031      H3036   1.108       .  S
C3031      H3037   1.107       .  S
C3034      H3038   1.109       .  S
C3034      H3039   1.111       .  S
C3034      H3040   1.111       .  S
C3041      C3046   1.424       .  A
C3041      H3048   1.084       .  S
C3042      C3043   1.428   1_545  A
C3043      C3044   1.408       .  A
C3043      C3050   1.511       .  S
C3044      C3045   1.404       .  A
C3044      H3049   1.078       .  S
C3046      C3047   1.505       .  S
C3047      H3051   1.110       .  S
C3047      H3052   1.107       .  S
C3047      H3053   1.110       .  S
C3050      H3054   1.110       .  S
C3050      H3055   1.110   1_565  S
C3050      H3056   1.111       .  S
C3057      C3058   1.413       .  A
C3057      C3062   1.420       .  A
C3057      H3064   1.084       .  S
C3059      C3060   1.407       .  A
C3059      C3066   1.507       .  S
C3060      H3065   1.084       .  S
C3061      C3062   1.419       .  A
C3062      C3063   1.504       .  S
C3063      H3067   1.111       .  S
C3063      H3068   1.110       .  S
C3063      H3069   1.110       .  S
C3066      H3070   1.099       .  S
C3066      H3071   1.098       .  S
C3066      H3072   1.111       .  S
C3073      C3074   1.414       .  A
C3073      C3078   1.419       .  A
C3073      H3080   1.081       .  S
C3075      C3076   1.402       .  A
C3075      C3082   1.504   1_455  S
C3076      H3081   1.084       .  S
C3077      C3078   1.417       .  A
C3078      C3079   1.505       .  S
C3079      H3083   1.111       .  S
C3079      H3084   1.110       .  S
C3079      H3085   1.110       .  S
C3082      H3086   1.096       .  S
C3082      H3087   1.111       .  S
C3082      H3088   1.111   1_655  S
