geometry optimzed in LAMMPS
_audit_creation_date              2020-12-01 
_audit_creation_method            'lammps2cif' 
_symmetry_space_group_name_H-M    'P1' 
_symmetry_Int_Tables_number       1 
_symmetry_cell_setting            triclinic 
loop_ 
_symmetry_equiv_pos_as_xyz 
  x,y,z 
_cell_length_a                    34.08743308 
_cell_length_b                    33.505493849386916 
_cell_length_c                    34.06518793263772 
_cell_angle_alpha                 86.19861228922352 
_cell_angle_beta                  99.19463640588121 
_cell_angle_gamma                 94.81355382370704 
loop_ 
_atom_site_label 
_atom_site_type_symbol 
_atom_site_fract_x 
_atom_site_fract_y 
_atom_site_fract_z 
_atom_site_charge 
N1          N  0.95480011  0.04056513  0.51634007    -0.36500
N2          N  0.03887287  0.04814753  0.51012942    -0.57100
N3          N  0.04015421  0.96030528  0.51570947    -0.36500
N4          N  0.95543542  0.95264112  0.51687692    -0.57100
C5          C  0.95968517  0.08033844  0.50627172     0.27100
C6          C  0.91527260  0.02957685  0.50893010     0.27100
C7          C  0.07633890  0.97137628  0.50527068     0.27100
C8          C  0.03186232  0.92088137  0.50862210     0.27100
C9          C  0.03376290  0.08711157  0.51488449     0.35700
C10         C  0.07867191  0.04484010  0.51507592     0.35700
C11         C  0.91854728  0.95603883  0.52544394     0.35700
C12         C  0.96331355  0.91378550  0.52528628     0.35700
C13         C  0.92275491  0.09490284  0.49289287    -0.21800
C14         C  0.89477730  0.06288273  0.49433850    -0.21800
C15         C  0.09134271  0.93858714  0.49157835    -0.21800
C16         C  0.06322399  0.90678740  0.49353845    -0.21800
C17         C  0.07043046  0.10861198  0.52256754    -0.22800
C18         C  0.09883884  0.08188142  0.52270311    -0.22800
C19         C  0.90305411  0.91923344  0.53961185    -0.22800
C20         C  0.93141730  0.89247221  0.53948686    -0.22800
C21         C  0.99647290  0.10405602  0.51000396    -0.18200
C22         C  0.89710563  0.99078492  0.51687796    -0.18200
C23         C  0.99778856  0.89686959  0.51759766    -0.18200
C24         C  0.09715398  0.00962701  0.50993839    -0.18200
H25         H  0.91660170  0.12540702  0.48289947     0.14700
H26         H  0.86290942  0.06410845  0.48580517     0.14700
H27         H  0.11973186  0.93761482  0.48140710     0.14700
H28         H  0.06578956  0.87661740  0.48518246     0.14700
H29         H  0.07615032  0.14034573  0.52721414     0.13000
H30         H  0.13073856  0.08904941  0.52736270     0.13000
H31         H  0.87405493  0.91225836  0.54852662     0.13000
H32         H  0.92867571  0.86087080  0.54837280     0.13000
H33         H  0.97666711  0.02276344  0.53110568     0.26300
H34         H  0.02431506  0.97753760  0.53103185     0.26300
O35         O  0.09607494  0.53649225  0.50747262    -0.80800
O36         O  0.91600719  0.52205692  0.51856318    -0.65500
O37         O  0.02537023  0.49809254  0.52890286    -1.12100
C38         C  0.99015691  0.47161592  0.39208745     1.06100
O39         O  0.89704146  0.46591899  0.48809207    -0.78700
O40         O  0.94784148  0.41762027  0.46513270    -0.66300
Ni41       Ni  0.06754138  0.53375417  0.55237078     1.34900
C42         C  0.98193940  0.40638754  0.48009581     0.84800
O43         O  0.97629417  0.51928907  0.58121887    -0.79200
O44         O  0.04267726  0.53231793  0.59909062    -0.89500
C45         C  0.88866168  0.49594320  0.50534790     0.84400
O46         O  0.04617035  0.58380097  0.53420000    -0.67700
O47         O  0.95430883  0.46728320  0.39913939    -0.87000
C48         C  0.01134135  0.59443085  0.52136717     0.85200
C49         C  0.00725823  0.52625564  0.60721497     1.06800
H50         H  0.96828376  0.52825597  0.45496310     0.38600
O51         O  0.96993901  0.50275111  0.46995818    -1.09600
O52         O  0.01280100  0.43097537  0.48580436    -0.66300
Ni53       Ni  0.02376326  0.48823328  0.47429524     1.26300
O54         O  0.98117671  0.56920380  0.51514269    -0.66500
O55         O  0.02009496  0.47938806  0.41882770    -0.78800
C56         C  0.10592175  0.50571373  0.49247881     0.84600
O57         O  0.07937020  0.47797729  0.48140198    -0.66000
Ni58       Ni  0.92783126  0.46768916  0.44487450     1.27400
Ni59       Ni  0.97154465  0.51174976  0.52510797     1.26100
H60         H  0.02763069  0.47294208  0.54434904     0.39200
O61         O  0.40003594  0.01318673  0.45747721    -0.80800
O62         O  0.57350300  0.97125985  0.47398711    -0.65500
O63         O  0.46627046  0.97416654  0.49234625    -1.12100
C64         C  0.51762068  0.09981888  0.54304558     1.06100
O65         O  0.59102395  0.98307057  0.53725672    -0.78700
O66         O  0.54854355  0.01249742  0.58819404    -0.66300
Ni67       Ni  0.42247557  0.96369199  0.45138597     1.34900
C68         C  0.51325620  0.00406071  0.59512553     0.84800
O69         O  0.50883189  0.91893967  0.46213461    -0.79200
O70         O  0.44211518  0.91335707  0.44378867    -0.89500
C71         C  0.60012590  0.97347093  0.50457446     0.84400
O72         O  0.44392991  0.98656044  0.40559852    -0.67700
O73         O  0.55167949  0.08515721  0.54812789    -0.87000
C74         C  0.47908703  0.99458212  0.39794531     0.85200
C75         C  0.47634995  0.89927476  0.44848132     1.06800
H76         H  0.52994712  0.04354038  0.47896582     0.38600
O77         O  0.52642113  0.02425005  0.50071171    -1.09600
O78         O  0.48304140  0.00553907  0.56765296    -0.66300
Ni79       Ni  0.47395714  0.02679213  0.51238229     1.26300
O80         O  0.50963946  0.99299398  0.42512182    -0.66500
O81         O  0.48472903  0.07997142  0.53070534    -0.78800
C82         C  0.39142746  0.02192067  0.49069083     0.84600
O83         O  0.41928264  0.02734361  0.51984253    -0.66000
Ni84       Ni  0.57016431  0.03380948  0.54198099     1.27400
Ni85       Ni  0.51882005  0.97188229  0.48062048     1.26100
H86         H  0.46301002  0.95491863  0.51422628     0.39200
N87         N  0.49194337  0.95673697  0.04218765    -0.36500
N88         N  0.49338402  0.04415707  0.03594764    -0.57100
N89         N  0.49589759  0.04346513  0.94874856    -0.36500
N90         N  0.49948752  0.95648555  0.95602626    -0.57100
C91         C  0.49537126  0.96404403  0.08154344     0.27100
C92         C  0.49837329  0.91758185  0.03951112     0.27100
C93         C  0.49726647  0.08356360  0.95273960     0.27100
C94         C  0.49982260  0.03728637  0.91053455     0.27100
C95         C  0.48916132  0.03855104  0.07498436     0.35700
C96         C  0.49059048  0.08378626  0.02581883     0.35700
C97         C  0.49889947  0.91641682  0.96526658     0.35700
C98         C  0.50003312  0.96190371  0.91615912     0.35700
C99         C  0.50311022  0.92867221  0.10392330    -0.21800
C100        C  0.50483788  0.89958980  0.07763915    -0.21800
C101        C  0.50137135  0.10321360  0.91628556    -0.21800
C102        C  0.50262639  0.07421880  0.88976574    -0.21800
C103        C  0.48328370  0.07490543  0.08953369    -0.22800
C104        C  0.48451598  0.10341126  0.05870807    -0.22800
C105        C  0.49951305  0.89638319  0.93103682    -0.22800
C106        C  0.50054939  0.92495132  0.90028113    -0.22800
C107        C  0.49194372  0.00151361  0.09824464    -0.18200
C108        C  0.49900869  0.89716728  0.00403090    -0.18200
C109        C  0.50061383  0.99947073  0.89357369    -0.18200
C110        C  0.49481864  0.10333950  0.98801637    -0.18200
H111        H  0.50773491  0.92421224  0.13602980     0.14700
H112        H  0.51097826  0.86872729  0.08589092     0.14700
H113        H  0.50311098  0.13523970  0.90930403     0.14700
H114        H  0.50544590  0.07996905  0.85868307     0.14700
H115        H  0.47876943  0.08050279  0.11935180     0.13000
H116        H  0.48122425  0.13507984  0.06037267     0.13000
H117        H  0.49943436  0.86438107  0.92834995     0.13000
H118        H  0.50166118  0.91895914  0.86967748     0.13000
H119        H  0.48297893  0.97635353  0.01835020     0.26300
H120        H  0.49148181  0.02178379  0.97080607     0.26300
N121        N  0.96716228  0.49421842  0.03911566    -0.36500
N122        N  0.96127587  0.51143108  0.95399278    -0.57100
N123        N  0.04704115  0.51862994  0.96196739    -0.36500
N124        N  0.05291179  0.49761330  0.04727275    -0.57100
C125        C  0.92801249  0.48416878  0.02737645     0.27100
C126        C  0.97652866  0.47938032  0.07701112     0.27100
C127        C  0.03707226  0.51709401  0.92198890     0.27100
C128        C  0.08548211  0.50972317  0.97131278     0.27100
C129        C  0.92256773  0.51249482  0.95748275     0.35700
C130        C  0.96481102  0.52566451  0.91667358     0.35700
C131        C  0.04923135  0.49772821  0.08615605     0.35700
C132        C  0.09151738  0.50852958  0.04501690     0.35700
C133        C  0.91226668  0.46272278  0.05824852    -0.21800
C134        C  0.94296107  0.45964154  0.08959184    -0.21800
C135        C  0.06967329  0.50750546  0.90575938    -0.21800
C136        C  0.10024315  0.50288647  0.93689817    -0.21800
C137        C  0.90130697  0.52737108  0.92216167    -0.22800
C138        C  0.92818299  0.53584262  0.89627275    -0.22800
C139        C  0.08570777  0.50840188  0.10871629    -0.22800
C140        C  0.11260648  0.51506695  0.08259784    -0.22600
C141        C  0.90559389  0.49658102  0.99072500    -0.18200
C142        C  0.01365654  0.48649048  0.10155006    -0.18200
C143        C  0.10834950  0.51032503  0.00973806    -0.18200
C144        C  0.99974587  0.52537440  0.89961477    -0.18200
H145        H  0.88167342  0.45121277  0.05850528     0.14700
H146        H  0.94066300  0.44529006  0.11863888     0.14700
H147        H  0.07133971  0.50425207  0.87468106     0.14700
H148        H  0.13006335  0.49559090  0.93444463     0.14700
H149        H  0.86960703  0.53078766  0.91539110     0.13000
H150        H  0.92135381  0.54711495  0.86562607     0.13000
H151        H  0.09233979  0.51094933  0.14063042     0.13000
H152        H  0.14406079  0.52375692  0.09036207     0.13000
H153        H  0.98506129  0.51458911  0.02422962     0.26300
H154        H  0.03013318  0.52941912  0.98122229     0.26300
O155        O  0.52016974  0.45307648  0.09395725    -0.80800
O156        O  0.52501507  0.48683081  0.91719842    -0.65500
O157        O  0.53938186  0.50028106  0.02923476    -1.12100
C158        C  0.40196837  0.52353841  0.99919868     1.06100
O159        O  0.50107614  0.54607888  0.91165444    -0.78700
O160        O  0.47508774  0.58677590  0.96542156    -0.66300
Ni161      Ni  0.56521929  0.46305169  0.06659381     1.34900
C162        C  0.49083861  0.59426515  0.00065535     0.84800
O163        O  0.58852962  0.48197173  0.97555813    -0.79200
O164        O  0.61137438  0.47053787  0.04091189    -0.89500
C165        C  0.51304429  0.51724319  0.89559309     0.84400
O166        O  0.54957842  0.41488173  0.04001256    -0.67700
O167        O  0.40934839  0.53364347  0.96408554    -0.87000
C168        C  0.53156932  0.40594527  0.00588193     0.85200
C169        C  0.61642170  0.47515744  0.00448183     1.06800
H170        H  0.46322229  0.47541687  0.97053463     0.38600
O171        O  0.47933211  0.50025260  0.97538682    -1.09600
O172        O  0.49651168  0.56665726  0.02831442    -0.66300
Ni173      Ni  0.48469935  0.50820343  0.03071808     1.26300
O174        O  0.52080501  0.43278467  0.97870075    -0.66500
O175        O  0.42882974  0.51471155  0.02859322    -0.78800
C176        C  0.50480839  0.48031167  0.10924798     0.84600
O177        O  0.49251769  0.51060191  0.08763762    -0.66000
Ni178      Ni  0.45577508  0.53927722  0.93866188     1.27400
Ni179      Ni  0.53352593  0.49083333  0.97405829     1.26100
H180        H  0.55472180  0.52569034  0.03307184     0.39200
O181        O  0.45465564  0.47081422  0.41194606    -0.80800
O182        O  0.48156962  0.54536663  0.57211524    -0.65500
O183        O  0.49500158  0.52023853  0.46746039    -1.12100
C184        C  0.53532911  0.39887658  0.53648612     1.06100
O185        O  0.54294147  0.52954747  0.58975313    -0.78700
O186        O  0.58882095  0.48873287  0.55287052    -0.66300
Ni187      Ni  0.45343057  0.52544348  0.42366569     1.34900
C188        C  0.59453286  0.49246248  0.51693968     0.84800
O189        O  0.47205309  0.58692807  0.49981835    -0.79200
O190        O  0.45120485  0.58047972  0.43403449    -0.89500
C191        C  0.51155385  0.54139855  0.59911594     0.84400
O192        O  0.40811953  0.51038536  0.44886161    -0.67700
O193        O  0.54362360  0.41921758  0.56759970    -0.87000
C194        C  0.40211703  0.50825390  0.48466065     0.85200
C195        C  0.45989211  0.60147859  0.46462876     1.06800
H196        H  0.47857750  0.46424209  0.54020714     0.38600
O197        O  0.50159401  0.48071277  0.53380982    -1.09600
O198        O  0.56660182  0.48637085  0.48785591    -0.66300
Ni199      Ni  0.51072487  0.46715061  0.48280309     1.26300
O200        O  0.42991733  0.51537930  0.51369798    -0.66500
O201        O  0.52486257  0.41421182  0.50129453    -0.78800
C202        C  0.48611482  0.45966216  0.40221618     0.84600
O203        O  0.51605246  0.45584885  0.42925958    -0.66000
Ni204      Ni  0.54295474  0.47467255  0.57786480     1.27400
Ni205      Ni  0.48614693  0.53393624  0.51848377     1.26100
H206        H  0.51782394  0.53684430  0.46078169     0.39200
C207        C  0.47396062  0.53352026  0.69842885    -0.27500
C208        C  0.50990414  0.53806774  0.72498032     0.02100
C209        C  0.54555711  0.54847160  0.70963864     0.30200
C210        C  0.54528689  0.55174069  0.66845255    -0.19300
C211        C  0.50958231  0.54561287  0.64176647    -0.28700
C212        C  0.47352467  0.53767382  0.65715146     0.44200
C213        C  0.51006283  0.53160329  0.76854453     0.05400
O214        O  0.58096523  0.55483504  0.73467721    -0.57200
H215        H  0.57334320  0.55812808  0.65734178     0.18300
O216        O  0.43809555  0.53083734  0.63229810    -0.63900
H217        H  0.44623818  0.52541379  0.70969978     0.16800
C218        C  0.48565705  0.55289546  0.78789631     0.29100
C219        C  0.48717840  0.54756190  0.82908756    -0.24800
C220        C  0.51234637  0.52055784  0.85189492    -0.24100
C221        C  0.53618384  0.49849253  0.83245433     0.40500
C222        C  0.53497164  0.50418061  0.79107037    -0.26600
O223        O  0.46149257  0.58034872  0.76702842    -0.58400
H224        H  0.46834437  0.56478811  0.84320672     0.16100
O225        O  0.56103357  0.47177257  0.85348808    -0.59900
H226        H  0.55357567  0.48715104  0.77648207     0.14600
H227        H  0.42748057  0.55759666  0.62622980     0.46400
H228        H  0.43406448  0.56733974  0.76505438     0.41800
H229        H  0.58684187  0.48750346  0.86084020     0.45300
H230        H  0.58249879  0.58353106  0.74070401     0.36800
C231        C  0.48771169  0.50004476  0.21385626    -0.27500
C232        C  0.49840566  0.46401617  0.23474137     0.02100
C233        C  0.51036375  0.43334061  0.21418755     0.30200
C234        C  0.51146978  0.43895606  0.17330474    -0.19300
C235        C  0.50111413  0.47518921  0.15218226    -0.28700
C236        C  0.48902308  0.50583795  0.17297034     0.44200
C237        C  0.49531308  0.45857922  0.27763945     0.05400
O238        O  0.51936503  0.39720344  0.23346680    -0.57200
H239        H  0.52058883  0.41466206  0.15818535     0.18300
O240        O  0.47947573  0.54193307  0.15403832    -0.63900
H241        H  0.47848456  0.52393076  0.22946544     0.16800
C242        C  0.52881143  0.45216530  0.30678352     0.29100
C243        C  0.52515163  0.45040859  0.34733205    -0.24800
C244        C  0.48838215  0.45548790  0.35945394    -0.24100
C245        C  0.45473022  0.46090954  0.32986052     0.40500
C246        C  0.45844370  0.46217601  0.28956659    -0.26600
O247        O  0.56550420  0.44904951  0.29606139    -0.58400
H248        H  0.55149797  0.44666341  0.36928981     0.16100
O249        O  0.41802593  0.46572855  0.33980081    -0.59900
H250        H  0.43243519  0.46692920  0.26740608     0.14600
H251        H  0.45010360  0.53935121  0.14630056     0.46400
H252        H  0.57575514  0.47699436  0.29002057     0.41800
H253        H  0.41537068  0.49509039  0.33742082     0.45300
H254        H  0.54865677  0.39658627  0.23542597     0.36800
C255        C  0.72499055  0.45449979  0.01495444    -0.27500
C256        C  0.73618351  0.47667711  0.98178852     0.02100
C257        C  0.70739380  0.49512379  0.95398921     0.30200
C258        C  0.66789149  0.49298761  0.96080072    -0.19300
C259        C  0.65703947  0.47312223  0.99555668    -0.28700
C260        C  0.68574955  0.45263486  0.02209437     0.44200
C261        C  0.77870567  0.48319665  0.97912905     0.05400
O262        O  0.71770649  0.51513944  0.92023586    -0.57200
H263        H  0.64612989  0.50818814  0.93961359     0.18300
O264        O  0.67573366  0.43034795  0.05480199    -0.63900
H265        H  0.74712345  0.43980269  0.03618167     0.16800
C266        C  0.79931037  0.52014582  0.98919946     0.29100
C267        C  0.84080343  0.52415050  0.99310119    -0.24800
C268        C  0.86178854  0.49172246  0.98641883    -0.24100
C269        C  0.84110303  0.45526954  0.97485679     0.40500
C270        C  0.79966169  0.45097611  0.97176836    -0.26600
O271        O  0.77926202  0.55158398  0.99761747    -0.58400
H272        H  0.85671136  0.55237447  0.00171473     0.16100
O273        O  0.86131330  0.42342278  0.96784817    -0.59900
H274        H  0.78388893  0.42233862  0.96444686     0.14600
H275        H  0.68532614  0.44723552  0.07774852     0.46400
H276        H  0.77641092  0.56924785  0.97295449     0.41800
H277        H  0.86475822  0.42727337  0.93944957     0.45300
H278        H  0.71636018  0.54399977  0.92428267     0.36800
C279        C  0.30656934  0.50935648  0.04561062    -0.27500
C280        C  0.27779076  0.51529017  0.01182789     0.02100
C281        C  0.28989678  0.52315711  0.97436737     0.30200
C282        C  0.33021337  0.52627847  0.97114145    -0.19300
C283        C  0.35951561  0.52107443  0.00486087    -0.28700
C284        C  0.34723500  0.51222682  0.04241206     0.44200
C285        C  0.23514726  0.51471491  0.01534673     0.05400
O286        O  0.26243466  0.52790690  0.94055598    -0.57200
H287        H  0.33834082  0.53246015  0.94175475     0.18300
O288        O  0.37446045  0.50612271  0.07610187    -0.63900
H289        H  0.29753642  0.50323932  0.07462547     0.16800
C290        C  0.21464772  0.48055164  0.03086259     0.29100
C291        C  0.17330243  0.47955846  0.02943249    -0.24800
C292        C  0.15228463  0.51253107  0.01302137    -0.24100
C293        C  0.17299182  0.54714281  0.99888728     0.40500
C294        C  0.21417145  0.54814841  0.00033550    -0.26600
O295        O  0.23436550  0.44730330  0.04527408    -0.58400
H296        H  0.15745218  0.45277764  0.04035727     0.16100
O297        O  0.15312874  0.58011565  0.98378725    -0.59900
H298        H  0.22974909  0.57484615  0.98888401     0.14600
H299        H  0.38050018  0.53281160  0.08754054     0.46400
H300        H  0.23726915  0.44784304  0.07467595     0.41800
H301        H  0.14994156  0.57885319  0.95443149     0.45300
H302        H  0.25240678  0.50031085  0.93326288     0.36800
C303        C  0.51995511  0.70542622  0.98212507    -0.27500
C304        C  0.50855668  0.72269198  0.01464172     0.02100
C305        C  0.49613093  0.69668859  0.04552809     0.30200
C306        C  0.49295438  0.65463467  0.04234676    -0.19300
C307        C  0.50196426  0.63763158  0.00846918    -0.28700
C308        C  0.51691978  0.66365695  0.97896397     0.44200
C309        C  0.50734650  0.76754294  0.01446294     0.05400
O310        O  0.48601171  0.71209079  0.07852892    -0.57200
H311        H  0.48153633  0.63546679  0.06547113     0.18300
O312        O  0.52733431  0.64861822  0.94589170    -0.63900
H313        H  0.52973342  0.72450254  0.95806240     0.16800
C314        C  0.54035169  0.79396747  0.00728139     0.29100
C315        C  0.53744279  0.83577571  0.00438063    -0.24800
C316        C  0.50175530  0.85235085  0.00811776    -0.24100
C317        C  0.46881448  0.82611464  0.01533068     0.40500
C318        C  0.47184233  0.78430485  0.01877586    -0.26600
O319        O  0.57563908  0.77928305  0.00280939    -0.58400
H320        H  0.56309737  0.85542952  0.99883405     0.16100
O321        O  0.43333579  0.84110600  0.01863245    -0.59900
H322        H  0.44585576  0.76481602  0.02359970     0.14600
H323        H  0.55398995  0.63849273  0.95490386     0.46400
H324        H  0.58953840  0.77391415  0.03028663     0.41800
H325        H  0.41697445  0.83899330  0.99192193     0.45300
H326        H  0.51156495  0.71696839  0.09663162     0.36800
C327        C  0.50444471  0.30477707  0.95676860    -0.27500
C328        C  0.51492155  0.27750014  0.98927889     0.02100
C329        C  0.53005458  0.29273356  0.02660964     0.30200
C330        C  0.53436632  0.33411416  0.03117194    -0.19300
C331        C  0.52412512  0.36191310  0.99887993    -0.28700
C332        C  0.50912640  0.34661560  0.96124789     0.44200
C333        C  0.50977752  0.23317926  0.98494560     0.05400
O334        O  0.54069979  0.26730965  0.05913544    -0.57200
H335        H  0.54610955  0.34432913  0.06054554     0.18300
O336        O  0.50016261  0.37206018  0.92842019    -0.63900
H337        H  0.49309550  0.29360389  0.92769072     0.16800
C338        C  0.47186067  0.21351147  0.97322439     0.29100
C339        C  0.46709544  0.17133614  0.97373508    -0.24800
C340        C  0.49986739  0.14822090  0.98591287    -0.24100
C341        C  0.53785968  0.16786087  0.99652850     0.40500
C342        C  0.54262731  0.20987310  0.99599342    -0.26600
O343        O  0.43911231  0.23520489  0.96233908    -0.58400
H344        H  0.43771672  0.15660484  0.96527436     0.16100
O345        O  0.57058658  0.14610510  0.00736642    -0.59900
H346        H  0.57204929  0.22436249  0.00487957     0.14600
H347        H  0.47109391  0.37468409  0.92585467     0.46400
H348        H  0.42858030  0.23813622  0.98741833     0.41800
H349        H  0.57137681  0.13910728  0.03621487     0.45300
H350        H  0.51572838  0.25983876  0.07019535     0.36800
C351        C  0.44228633  0.79424397  0.41915432    -0.27500
C352        C  0.47262615  0.77310017  0.44165240     0.02100
C353        C  0.50769748  0.79394609  0.45962140     0.30200
C354        C  0.51018944  0.83578290  0.45865301    -0.19300
C355        C  0.47778531  0.85695350  0.44005383    -0.28700
C356        C  0.44485507  0.83598917  0.41781850     0.44200
C357        C  0.46650321  0.72939810  0.44761497     0.05400
O358        O  0.53933497  0.77353740  0.47841503    -0.57200
H359        H  0.53645985  0.85134094  0.47464940     0.18300
O360        O  0.41410774  0.85578637  0.39631538    -0.63900
H361        H  0.41573086  0.77830094  0.40409696     0.16800
C362        C  0.46719657  0.71116083  0.48610306     0.29100
C363        C  0.46321397  0.66944306  0.49126009    -0.24800
C364        C  0.45791700  0.64541075  0.45825709    -0.24100
C365        C  0.45466766  0.66422137  0.41947109     0.40500
C366        C  0.45887920  0.70588470  0.41454459    -0.26600
O367        O  0.47220730  0.73384014  0.51887715    -0.58400
H368        H  0.46510993  0.65593709  0.52122912     0.16100
O369        O  0.44849260  0.64237651  0.38607432    -0.59900
H370        H  0.45734698  0.71986433  0.38477053     0.14600
H371        H  0.42312818  0.86434824  0.37057410     0.46400
H372        H  0.44572838  0.74383674  0.51938681     0.41800
H373        H  0.47533393  0.64071008  0.37881535     0.45300
H374        H  0.54099662  0.77778508  0.50719007     0.36800
C375        C  0.48852079  0.20699712  0.53414357    -0.27500
C376        C  0.52404416  0.22674718  0.55199633     0.02100
C377        C  0.55533974  0.20457069  0.57115705     0.30200
C378        C  0.55178545  0.16287179  0.57027935    -0.19300
C379        C  0.51718287  0.14280058  0.55015368    -0.28700
C380        C  0.48466891  0.16520833  0.53347489     0.44200
C381        C  0.52901105  0.27062203  0.54856092     0.05400
O382        O  0.59003508  0.22352405  0.58947838    -0.57200
H383        H  0.57690157  0.14640624  0.58404100     0.18300
O384        O  0.45005449  0.14702674  0.51414214    -0.63900
H385        H  0.46414871  0.22415435  0.51970542     0.16800
C386        C  0.53527563  0.29056780  0.51226931     0.29100
C387        C  0.53890700  0.33242133  0.50906443    -0.24800
C388        C  0.53605108  0.35482857  0.54179490    -0.24100
C389        C  0.53048551  0.33442991  0.57846056     0.40500
C390        C  0.52707759  0.29257263  0.58153742    -0.26600
O391        O  0.53825234  0.26931370  0.47994334    -0.58400
H392        H  0.54334153  0.34734028  0.48073464     0.16100
O393        O  0.52575390  0.35493252  0.61073692    -0.59900
H394        H  0.52202073  0.27717712  0.60948873     0.14600
H395        H  0.43186587  0.14316863  0.53430592     0.46400
H396        H  0.51073288  0.26595384  0.46522541     0.41800
H397        H  0.55185911  0.35506563  0.62843482     0.45300
H398        H  0.60770296  0.22729211  0.56883944     0.36800
C399        C  0.53411338  0.97747727  0.70744441    -0.27500
C400        C  0.50269471  0.99436842  0.72123264     0.02100
C401        C  0.47291342  0.01094717  0.69253964     0.30200
C402        C  0.47530175  0.01119748  0.65151852    -0.19300
C403        C  0.50739591  0.99559207  0.63781150    -0.28700
C404        C  0.53658314  0.97790268  0.66644315     0.44200
C405        C  0.50200153  0.99566702  0.76540494     0.05400
O406        O  0.44308485  0.03003223  0.70444402    -0.57200
H407        H  0.45304581  0.02590478  0.63048146     0.18300
O408        O  0.56832084  0.96177111  0.65484153    -0.63900
H409        H  0.55720935  0.96424408  0.72868046     0.16800
C410        C  0.46821263  0.98088691  0.78267590     0.29100
C411        C  0.46801937  0.98302005  0.82382954    -0.24800
C412        C  0.50148739  0.99897662  0.84922575    -0.24100
C413        C  0.53551102  0.01332626  0.83217991     0.40500
C414        C  0.53554806  0.01169837  0.79084206    -0.26600
O415        O  0.43531078  0.96345796  0.75976398    -0.58400
H416        H  0.44166897  0.97152865  0.83618548     0.16100
O417        O  0.56874733  0.02951634  0.85561892    -0.59900
H418        H  0.56189690  0.02331674  0.77854522     0.14600
H419        H  0.55764079  0.93530918  0.64471823     0.46400
H420        H  0.44160915  0.93543909  0.75739418     0.41800
H421        H  0.58633364  0.00716737  0.86262025     0.45300
H422        H  0.41804983  0.01380731  0.69507370     0.36800
C423        C  0.45445786  0.01216333  0.28431481    -0.27500
C424        C  0.48991496  0.00382355  0.27128539     0.02100
C425        C  0.52327636  0.99676774  0.30079316     0.30200
C426        C  0.52026343  0.99658422  0.34176952    -0.19300
C427        C  0.48411103  0.00299037  0.35474625    -0.28700
C428        C  0.45134052  0.01183340  0.32508200     0.44200
C429        C  0.49120936  0.00214691  0.22711452     0.05400
O430        O  0.55868649  0.98837590  0.29009176    -0.57200
H431        H  0.54592405  0.98939711  0.36344148     0.18300
O432        O  0.41545040  0.01920127  0.33539528    -0.63900
H433        H  0.42862432  0.01875649  0.26262447     0.16800
C434        C  0.46089689  0.98049976  0.20185207     0.29100
C435        C  0.46129909  0.98094629  0.16045693    -0.24800
C436        C  0.49214202  0.00195418  0.14288760    -0.24100
C437        C  0.52309111  0.02264105  0.16815622     0.40500
C438        C  0.52236565  0.02276136  0.20955859    -0.26600
O439        O  0.43085322  0.95817643  0.21738901    -0.58400
H440        H  0.43744934  0.96440351  0.14191970     0.16100
O441        O  0.55474730  0.04206056  0.15271457    -0.59900
H442        H  0.54611224  0.03960134  0.22790208     0.14600
H443        H  0.41768518  0.04823469  0.34018484     0.46400
H444        H  0.43993454  0.93066009  0.22202413     0.41800
H445        H  0.55197953  0.07108139  0.15455419     0.45300
H446        H  0.55557495  0.95938531  0.28503259     0.36800
C447        C  0.77978819  0.46862969  0.51502437    -0.27500
C448        C  0.76331609  0.50597686  0.50800494     0.02100
C449        C  0.78915702  0.54063778  0.50366985     0.30200
C450        C  0.83030886  0.53734078  0.50493849    -0.19300
C451        C  0.84635492  0.49965277  0.50996822    -0.28700
C452        C  0.82065545  0.46524634  0.51577809     0.44200
C453        C  0.71923802  0.50775615  0.50554918     0.05400
O454        O  0.77436213  0.57771705  0.49701613    -0.57200
H455        H  0.84942350  0.56417187  0.50025499     0.18300
O456        O  0.83539063  0.42816197  0.52319935    -0.63900
H457        H  0.76073447  0.44175260  0.51971238     0.16800
C458        C  0.69227240  0.48351266  0.47960541     0.29100
C459        C  0.65125958  0.48093924  0.48157322    -0.24800
C460        C  0.63624070  0.50218188  0.50938437    -0.24100
C461        C  0.66280684  0.52869289  0.53328115     0.40500
C462        C  0.70383810  0.53131420  0.53127022    -0.26600
O463        O  0.70592219  0.46100660  0.45314780    -0.58400
H464        H  0.63146759  0.46053608  0.46279948     0.16100
O465        O  0.64913772  0.55124182  0.55969806    -0.59900
H466        H  0.72386753  0.55044552  0.55118703     0.14600
H467        H  0.82820711  0.41457496  0.49776645     0.46400
H468        H  0.70614362  0.47870983  0.42866225     0.41800
H469        H  0.63960440  0.57539413  0.54379169     0.45300
H470        H  0.77068017  0.58292505  0.46770684     0.36800
C471        C  0.20700708  0.46504861  0.48959287    -0.27500
C472        C  0.23230138  0.50051984  0.48976017     0.02100
C473        C  0.21488552  0.53760009  0.48675510     0.30200
C474        C  0.17367905  0.53866628  0.48644945    -0.19300
C475        C  0.14862587  0.50320424  0.48815156    -0.28700
C476        C  0.16561961  0.46616634  0.48845668     0.44200
C477        C  0.27652616  0.49856234  0.49241205     0.05400
O478        O  0.23766947  0.57293032  0.48234103    -0.57200
H479        H  0.16129347  0.56757276  0.48496334     0.18300
O480        O  0.14249088  0.43075112  0.48991198    -0.63900
H481        H  0.21950433  0.43619518  0.49127626     0.16800
C482        C  0.30397563  0.52082878  0.51987140     0.29100
C483        C  0.34517114  0.52146899  0.51916028    -0.24800
C484        C  0.36003574  0.49973520  0.49160999    -0.24100
C485        C  0.33288916  0.47479367  0.46652934     0.40500
C486        C  0.29168946  0.47431967  0.46709526    -0.26600
O487        O  0.29089638  0.54266474  0.54721204    -0.58400
H488        H  0.36537937  0.54059604  0.53894279     0.16100
O489        O  0.34642603  0.45069368  0.44132019    -0.59900
H490        H  0.27145615  0.45597113  0.44658438     0.14600
H491        H  0.13619611  0.42278666  0.46194528     0.46400
H492        H  0.28666929  0.52320604  0.56964284     0.41800
H493        H  0.34116313  0.46448634  0.41454410     0.45300
H494        H  0.23625704  0.58811548  0.50604364     0.36800
C495        C  0.02977459  0.51548970  0.71949150    -0.27500
C496        C  0.99669486  0.53135873  0.73037190     0.02100
C497        C  0.96605659  0.54435221  0.70084447     0.30200
C498        C  0.96922014  0.54215238  0.66053514    -0.19300
C499        C  0.00277925  0.52685786  0.64950940    -0.28700
C500        C  0.03284134  0.51281792  0.67945579     0.44200
C501        C  0.99392264  0.53210878  0.77287647     0.05400
O502        O  0.93339705  0.55986921  0.71116854    -0.57200
H503        H  0.94583779  0.55297324  0.63795824     0.18300
O504        O  0.06511435  0.49583434  0.66992526    -0.63900
H505        H  0.05304972  0.50463574  0.74220119     0.16800
C506        C  0.97440555  0.49964555  0.79193212     0.29100
C507        C  0.97576415  0.49829335  0.83316192    -0.24800
C508        C  0.99624032  0.52929651  0.85565722    -0.24100
C509        C  0.01482168  0.56240996  0.83643111     0.40500
C510        C  0.01369471  0.56360916  0.79511338    -0.26600
O511        O  0.95564808  0.46824714  0.77065449    -0.58400
H512        H  0.96160735  0.47257894  0.84781001     0.16100
O513        O  0.03403256  0.59353539  0.85784246    -0.59900
H514        H  0.02888897  0.58865368  0.78050274     0.14600
H515        H  0.05635726  0.46707104  0.66685099     0.46400
H516        H  0.92697335  0.47325652  0.76614365     0.41800
H517        H  0.06268968  0.58849909  0.86183194     0.45300
H518        H  0.91393825  0.53649659  0.71374717     0.36800
C519        C  0.99367454  0.50535573  0.20457399    -0.27500
C520        C  0.01408054  0.47533504  0.22796040     0.02100
C521        C  0.03569365  0.44960375  0.21005775     0.30200
C522        C  0.03568594  0.45344908  0.16881078    -0.19300
C523        C  0.01468866  0.48316073  0.14536103    -0.28700
C524        C  0.99392382  0.50943602  0.16357322     0.44200
C525        C  0.00988660  0.46989818  0.27043230     0.05400
O526        O  0.05503352  0.41942854  0.23229276    -0.57200
H527        H  0.05158984  0.43295582  0.15499214     0.18300
O528        O  0.97417076  0.53944647  0.14144318    -0.63900
H529        H  0.97707458  0.52540372  0.21817259     0.16800
C530        C  0.04198917  0.47860455  0.30072015     0.29100
C531        C  0.03548812  0.47797802  0.34038719    -0.24800
C532        C  0.99712468  0.46839267  0.35042833    -0.24100
C533        C  0.96551449  0.45761576  0.31983508     0.40500
C534        C  0.97210909  0.45866981  0.28037241    -0.26600
O535        O  0.07916419  0.49016630  0.29154139    -0.58400
H536        H  0.06039636  0.48614814  0.36309667     0.16100
O537        O  0.92794612  0.44602535  0.32793003    -0.59900
H538        H  0.94731112  0.45144442  0.25717388     0.14600
H539        H  0.94554025  0.52998366  0.13837694     0.46400
H540        H  0.09517835  0.46680823  0.29985034     0.41800
H541        H  0.91280777  0.47028795  0.32184560     0.45300
H542        H  0.08379001  0.42822955  0.23471172     0.36800
C543        C  0.29606105  0.03875518  0.53153178    -0.27500
C544        C  0.26673048  0.02194853  0.50211707     0.02100
C545        C  0.27884279  0.00634070  0.46895392     0.30200
C546        C  0.31921508  0.00781206  0.46539695    -0.19300
C547        C  0.34878331  0.02411455  0.49485452    -0.28700
C548        C  0.33676806  0.03989116  0.52815172     0.44200
C549        C  0.22356116  0.02059680  0.50563557     0.05400
O550        O  0.25142010  0.98872865  0.44004556    -0.57200
H551        H  0.32737238  0.99501841  0.43972046     0.18300
O552        O  0.36438114  0.05627482  0.55764157    -0.63900
H553        H  0.28739446  0.05134291  0.55706000     0.16800
C554        C  0.20885028  0.00319480  0.53978659     0.29100
C555        C  0.16765428  0.99945770  0.54073916    -0.24800
C556        C  0.14069537  0.01332226  0.50816296    -0.24100
C557        C  0.15531411  0.03131854  0.47440793     0.40500
C558        C  0.19635984  0.03493531  0.47334525    -0.26600
O559        O  0.23427902  0.98797008  0.57151245    -0.58400
H560        H  0.15665799  0.98559459  0.56691550     0.16100
O561        O  0.12952697  0.04435337  0.44186426    -0.59900
H562        H  0.20699554  0.04870961  0.44695590     0.14600
H563        H  0.36751983  0.08522468  0.54962993     0.46400
H564        H  0.23659939  0.00785994  0.59222287     0.41800
H565        H  0.12915187  0.07363098  0.44436682     0.45300
H566        H  0.24750935  0.96032855  0.44974652     0.36800
C567        C  0.70079270  0.97651510  0.47009695    -0.27500
C568        C  0.72536192  0.96650998  0.50599029     0.02100
C569        C  0.70767875  0.95359893  0.53970023     0.30200
C570        C  0.66647553  0.95392656  0.53811593    -0.19300
C571        C  0.64206002  0.96629834  0.50293451    -0.28700
C572        C  0.65938815  0.97632861  0.46832461     0.44200
C573        C  0.76935372  0.97221859  0.50874062     0.05400
O574        O  0.73059400  0.94174461  0.57470441    -0.57200
H575        H  0.65369516  0.94550759  0.56490477     0.18300
O576        O  0.63653071  0.98812351  0.43325418    -0.63900
H577        H  0.71389920  0.98638214  0.44382246     0.16800
C578        C  0.78944287  0.95466316  0.48200797     0.29100
C579        C  0.83083757  0.96142936  0.48466395    -0.24800
C580        C  0.85289132  0.98548669  0.51392608    -0.24100
C581        C  0.83284828  0.00312257  0.54062747     0.40500
C582        C  0.79140756  0.99655076  0.53783135    -0.26600
O583        O  0.76893184  0.93066312  0.45333992    -0.58400
H584        H  0.84593202  0.94761786  0.46398519     0.16100
O585        O  0.85345522  0.02705272  0.56931057    -0.59900
H586        H  0.77635148  0.01080631  0.55824054     0.14600
H587        H  0.63862826  0.01785828  0.43258176     0.46400
H588        H  0.76692502  0.90346998  0.46658918     0.41800
H589        H  0.86335001  0.00831181  0.59177868     0.45300
H590        H  0.72981861  0.91210588  0.57445001     0.36800
C591        C  0.02505226  0.78918671  0.54497092    -0.27500
C592        C  0.99910661  0.76748780  0.51617627     0.02100
C593        C  0.97184186  0.78859720  0.48855279     0.30200
C594        C  0.97131925  0.83043146  0.48957278    -0.19300
C595        C  0.99786714  0.85209080  0.51783511    -0.28700
C596        C  0.02453197  0.83097607  0.54594310     0.44200
C597        C  0.00142034  0.72315875  0.51477272     0.05400
O598        O  0.94614165  0.76875131  0.45985328    -0.57200
H599        H  0.95052518  0.84616964  0.46779171     0.18300
O600        O  0.05044678  0.85104383  0.57432446    -0.63900
H601        H  0.04578107  0.77363175  0.56696267     0.16800
C602        C  0.03800955  0.70697262  0.51351434     0.29100
C603        C  0.04014125  0.66532770  0.51357938    -0.24800
C604        C  0.00626721  0.63853739  0.51532542    -0.24100
C605        C  0.96928333  0.65483123  0.51535115     0.40500
C606        C  0.96717124  0.69665832  0.51521397    -0.26600
O607        O  0.07183175  0.73175485  0.51129077    -0.58400
H608        H  0.06887116  0.65397252  0.51302537     0.16100
O609        O  0.93538138  0.63028489  0.51777713    -0.59900
H610        H  0.93876620  0.70838224  0.51651559     0.14600
H611        H  0.03642934  0.85024649  0.59776045     0.46400
H612        H  0.08854142  0.72864081  0.53780296     0.41800
H613        H  0.92274401  0.62676783  0.48979002     0.45300
H614        H  0.96062898  0.76916584  0.43677843     0.36800
C615        C  0.00692369  0.21432125  0.47354384    -0.27500
C616        C  0.99584103  0.23374971  0.50494415     0.02100
C617        C  0.98513626  0.21037869  0.53807600     0.30200
C618        C  0.98507944  0.16834526  0.53923901    -0.19300
C619        C  0.99596019  0.14888227  0.50774299    -0.28700
C620        C  0.00714638  0.17229376  0.47481363     0.44200
C621        C  0.99308460  0.27808148  0.50164799     0.05400
O622        O  0.97459537  0.22838962  0.56944574    -0.57200
H623        H  0.97674901  0.15083548  0.56492308     0.18300
O624        O  0.01713802  0.15418447  0.44321193    -0.63900
H625        H  0.01476817  0.23178216  0.44762815     0.16800
C626        C  0.02721787  0.30504377  0.50289559     0.29100
C627        C  0.02341469  0.34668014  0.49744226    -0.24800
C628        C  0.98563461  0.36232055  0.48991454    -0.24100
C629        C  0.95149819  0.33489885  0.48946626     0.40500
C630        C  0.95552413  0.29349465  0.49561121    -0.26600
O631        O  0.06447696  0.29100108  0.50999777    -0.58400
H632        H  0.05016840  0.36665956  0.49809212     0.16100
O633        O  0.91385315  0.34807432  0.48327981    -0.59900
H634        H  0.92897529  0.27315513  0.49468088     0.14600
H635        H  0.04659995  0.15807572  0.44607375     0.46400
H636        H  0.07132435  0.28743453  0.48329448     0.41800
H637        H  0.90346089  0.34393913  0.45482319     0.45300
H638        H  0.00000084  0.23447912  0.58741384     0.36800
loop_ 
_geom_bond_atom_site_label_1 
_geom_bond_atom_site_label_2 
_geom_bond_distance 
_geom_bond_site_symmetry_2 
_ccdc_geom_bond_type 
N1            C6   1.355       .  A
N1            C5   1.357       .  A
N1           H33   1.039       .  S
N2            C9   1.355       .  A
N2           C10   1.353       .  A
N3            C8   1.357       .  A
N3            C7   1.353       .  A
N3           H34   1.039       .  S
N4           C11   1.351       .  A
N4           C12   1.354       .  A
C5           C13   1.386       .  A
C5           C21   1.420       .  A
C6           C22   1.421   1_545  A
C6           C14   1.388       .  A
C7           C15   1.387       .  A
C7           C24   1.418   1_565  A
C8           C23   1.419   1_455  A
C8           C16   1.386       .  A
C9           C21   1.417   1_455  A
C9           C17   1.385       .  A
C10          C24   1.417       .  A
C10          C18   1.387       .  A
C11          C19   1.388       .  A
C11          C22   1.416       .  A
C12          C20   1.385       .  A
C12          C23   1.414       .  A
C13          C14   1.378       .  A
C13          H25   1.082       .  S
C14          H26   1.082       .  S
C15          C16   1.378       .  A
C15          H27   1.082       .  S
C16          H28   1.082       .  S
C17          C18   1.372       .  A
C17          H29   1.082       .  S
C18          H30   1.082       .  S
C19          C20   1.373       .  A
C19          H31   1.082       .  S
C20          H32   1.082       .  S
C21         C619   1.500       .  S
C22         C580   1.491       .  S
C23         C595   1.500       .  S
C24         C556   1.490       .  S
O35         Ni41   1.933       .  S
O35          C56   1.273       .  A
O36         Ni59   1.928       .  S
O36          C45   1.272       .  A
O37         Ni41   1.899       .  S
O37         Ni59   1.910   1_455  S
O37         Ni53   1.902       .  S
O37          H60   0.965       .  S
C38         C532   1.488       .  S
C38          O55   1.276   1_655  A
C38          O47   1.277       .  A
O39         Ni58   1.935       .  S
O39          C45   1.273       .  A
O40         Ni58   1.909       .  S
O40          C42   1.269       .  A
Ni41         O44   1.915       .  S
Ni41         O46   1.910       .  S
C42         C628   1.503       .  S
C42          O52   1.278   1_655  A
O43         Ni59   1.924       .  S
O43          C49   1.281   1_655  A
O44          C49   1.278       .  A
C45         C451   1.492       .  S
O46          C48   1.270       .  A
O47         Ni58   1.923       .  S
C48         C604   1.499       .  S
C48          O54   1.275   1_455  A
C49         C499   1.475       .  S
H50          O51   0.967       .  S
O51         Ni59   1.914       .  S
O51         Ni53   1.918   1_655  S
O51         Ni58   1.905       .  S
O52         Ni53   1.950       .  S
Ni53         O57   1.929       .  S
Ni53         O55   1.915       .  S
O54         Ni59   1.942       .  S
C56         C475   1.496       .  S
C56          O57   1.273       .  A
O61         Ni67   1.920   1_545  S
O61          C82   1.271       .  A
O62         Ni85   1.915       .  S
O62          C71   1.269       .  A
O63         Ni67   1.900       .  S
O63         Ni85   1.905       .  S
O63         Ni79   1.915   1_565  S
O63          H86   0.967       .  S
C64         C379   1.478       .  S
C64          O81   1.280       .  A
C64          O73   1.280       .  A
O65         Ni84   1.923   1_565  S
O65          C71   1.270       .  A
O66         Ni84   1.914       .  S
O66          C68   1.268       .  A
Ni67         O70   1.914       .  S
Ni67         O72   1.915       .  S
C68         C403   1.504   1_545  S
C68          O78   1.278       .  A
O69         Ni85   1.907       .  S
O69          C75   1.277       .  A
O70          C75   1.278       .  A
C71         C571   1.480       .  S
O72          C74   1.270       .  A
O73         Ni84   1.916       .  S
C74         C427   1.514   1_565  S
C74          O80   1.280       .  A
C75         C355   1.472       .  S
H76          O77   0.966       .  S
O77         Ni85   1.908   1_545  S
O77         Ni79   1.903       .  S
O77         Ni84   1.901       .  S
O78         Ni79   1.955       .  S
Ni79         O83   1.923       .  S
Ni79         O81   1.914       .  S
O80         Ni85   1.960       .  S
C82         C547   1.491       .  S
C82          O83   1.271       .  A
N87          C92   1.359       .  A
N87          C91   1.364       .  A
N87         H119   1.034       .  S
N88          C95   1.359       .  A
N88          C96   1.357       .  A
N89          C94   1.361       .  A
N89          C93   1.355       .  A
N89         H120   1.030       .  S
N90          C97   1.358       .  A
N90          C98   1.361       .  A
C91          C99   1.387       .  A
C91         C107   1.433   1_565  A
C92         C108   1.432       .  A
C92         C100   1.388       .  A
C93         C101   1.388       .  A
C93         C110   1.427       .  A
C94         C109   1.431   1_545  A
C94         C102   1.388       .  A
C95         C107   1.429       .  A
C95         C103   1.386       .  A
C96         C110   1.428   1_554  A
C96         C104   1.388       .  A
C97         C105   1.387       .  A
C97         C108   1.430   1_556  A
C98         C106   1.386       .  A
C98         C109   1.431       .  A
C99         C100   1.377       .  A
C99         H111   1.082       .  S
C100        H112   1.082       .  S
C101        C102   1.377       .  A
C101        H113   1.082       .  S
C102        H114   1.082       .  S
C103        C104   1.375       .  A
C103        H115   1.082       .  S
C104        H116   1.082       .  S
C105        C106   1.374       .  A
C105        H117   1.082       .  S
C106        H118   1.082       .  S
C107        C436   1.521       .  S
C108        C316   1.508       .  S
C109        C412   1.517       .  S
C110        C340   1.497       .  S
N121        C126   1.351       .  A
N121        C125   1.351       .  A
N121        H153   1.038       .  S
N122        C129   1.347       .  A
N122        C130   1.348       .  A
N123        C128   1.352       .  A
N123        C127   1.353       .  A
N123        H154   1.039       .  S
N124        C131   1.351       .  A
N124        C132   1.349       .  A
C125        C133   1.388       .  A
C125        C141   1.413   1_554  A
C126        C142   1.412   1_655  A
C126        C134   1.387       .  A
C127        C135   1.387       .  A
C127        C144   1.414   1_455  A
C128        C143   1.413   1_556  A
C128        C136   1.387       .  A
C129        C141   1.407       .  A
C129        C137   1.387       .  A
C130        C144   1.407       .  A
C130        C138   1.386       .  A
C131        C139   1.386       .  A
C131        C142   1.410       .  A
C132        C140   1.386       .  A
C132        C143   1.408       .  A
C133        C134   1.375       .  A
C133        H145   1.082       .  S
C134        H146   1.083       .  S
C135        C136   1.374       .  A
C135        H147   1.082       .  S
C136        H148   1.082       .  S
C137        C138   1.371       .  A
C137        H149   1.082       .  S
C138        H150   1.082       .  S
C139        C140   1.372       .  A
C139        H151   1.082       .  S
C140        H152   1.082       .  S
C141        C268   1.473       .  S
C142        C523   1.484       .  S
C143        C292   1.480       .  S
C144        C508   1.481       .  S
O155       Ni161   1.915       .  S
O155        C176   1.268       .  A
O156       Ni179   1.924       .  S
O156        C165   1.273       .  A
O157       Ni161   1.889       .  S
O157       Ni179   1.903   1_554  S
O157       Ni173   1.914       .  S
O157        H180   0.966       .  S
C158        C283   1.485   1_556  S
C158        O175   1.281   1_556  A
C158        O167   1.279       .  A
O159       Ni178   1.911       .  S
O159        C165   1.268       .  A
O160       Ni178   1.903       .  S
O160        C162   1.266   1_556  A
Ni161       O164   1.910       .  S
Ni161       O166   1.898       .  S
C162        C307   1.501       .  S
C162        O172   1.279       .  A
O163       Ni179   1.915       .  S
O163        C169   1.278   1_556  A
O164        C169   1.277       .  A
C165        C220   1.482       .  S
O166        C168   1.267       .  A
O167       Ni178   1.912       .  S
C168        C331   1.504   1_554  S
C168        O174   1.279   1_554  A
C169        C259   1.472   1_554  S
H170        O171   0.966       .  S
O171       Ni179   1.908       .  S
O171       Ni173   1.899   1_556  S
O171       Ni178   1.886       .  S
O172       Ni173   1.965       .  S
Ni173       O177   1.921       .  S
Ni173       O175   1.924       .  S
O174       Ni179   1.958       .  S
C176        C235   1.485       .  S
C176        O177   1.273       .  A
O181       Ni187   1.904       .  S
O181        C202   1.264       .  A
O182       Ni205   1.924       .  S
O182        C191   1.271       .  A
O183       Ni187   1.896       .  S
O183       Ni205   1.902       .  S
O183       Ni199   1.916       .  S
O183        H206   0.966       .  S
C184        C388   1.477       .  S
C184        O201   1.281       .  A
C184        O193   1.279       .  A
O185       Ni204   1.909       .  S
O185        C191   1.265       .  A
O186       Ni204   1.908       .  S
O186        C188   1.266       .  A
Ni187       O190   1.910       .  S
Ni187       O192   1.901       .  S
C188        C460   1.491       .  S
C188        O198   1.274       .  A
O189       Ni205   1.919       .  S
O189        C195   1.282       .  A
O190        C195   1.278       .  A
C191        C211   1.482       .  S
O192        C194   1.265       .  A
O193       Ni204   1.916       .  S
C194        C484   1.492       .  S
C194        O200   1.276       .  A
C195        C364   1.479       .  S
H196        O197   0.966       .  S
O197       Ni205   1.917       .  S
O197       Ni199   1.904       .  S
O197       Ni204   1.901       .  S
O198       Ni199   1.943       .  S
Ni199       O203   1.927       .  S
Ni199       O201   1.917       .  S
O200       Ni205   1.950       .  S
C202        C244   1.487       .  S
C202        O203   1.270       .  A
C207        C208   1.405       .  A
C207        C212   1.402       .  A
C207        H217   1.083       .  S
C208        C209   1.407       .  A
C208        C213   1.485       .  S
C209        C210   1.399       .  A
C209        O214   1.372       .  S
C210        C211   1.407       .  A
C210        H215   1.084       .  S
C211        C212   1.410       .  A
C212        O216   1.371       .  S
C213        C218   1.405       .  A
C213        C222   1.408       .  A
O214        H230   0.992       .  S
O216        H227   0.992       .  S
C218        C219   1.396       .  A
C218        O223   1.372       .  S
C219        C220   1.408       .  A
C219        H224   1.084       .  S
C220        C221   1.408       .  A
C221        C222   1.404       .  A
C221        O225   1.371       .  S
C222        H226   1.083       .  S
O223        H228   0.992       .  S
O225        H229   0.992       .  S
C231        C232   1.405       .  A
C231        C236   1.401       .  A
C231        H241   1.084       .  S
C232        C233   1.403       .  A
C232        C237   1.480       .  S
C233        C234   1.399       .  A
C233        O238   1.373       .  S
C234        C235   1.411       .  A
C234        H239   1.083       .  S
C235        C236   1.409       .  A
C236        O240   1.371       .  S
C237        C242   1.409       .  A
C237        C246   1.398       .  A
O238        H254   0.992       .  S
O240        H251   0.992       .  S
C242        C243   1.404       .  A
C242        O247   1.372       .  S
C243        C244   1.407       .  A
C243        H248   1.083       .  S
C244        C245   1.416       .  A
C245        C246   1.396       .  A
C245        O249   1.372       .  S
C246        H250   1.084       .  S
O247        H252   0.992       .  S
O249        H253   0.992       .  S
C255        C256   1.398   1_554  A
C255        C260   1.393       .  A
C255        H265   1.084       .  S
C256        C257   1.403       .  A
C256        C261   1.464       .  S
C257        C258   1.398       .  A
C257        O262   1.372       .  S
C258        C259   1.406       .  A
C258        H263   1.084       .  S
C259        C260   1.412   1_556  A
C260        O264   1.373       .  S
C261        C266   1.406       .  A
C261        C270   1.400       .  A
O262        H278   0.992       .  S
O264        H275   0.992       .  S
C266        C267   1.395       .  A
C266        O271   1.372       .  S
C267        C268   1.400       .  A
C267        H272   1.084   1_556  S
C268        C269   1.405       .  A
C269        C270   1.396       .  A
C269        O273   1.371       .  S
C270        H274   1.084       .  S
O271        H276   0.992       .  S
O273        H277   0.992       .  S
C279        C280   1.403       .  A
C279        C284   1.403       .  A
C279        H289   1.083       .  S
C280        C281   1.405   1_554  A
C280        C285   1.476       .  S
C281        C282   1.391       .  A
C281        O286   1.373       .  S
C282        C283   1.408   1_556  A
C282        H287   1.083       .  S
C283        C284   1.414       .  A
C284        O288   1.371       .  S
C285        C290   1.408       .  A
C285        C294   1.403       .  A
O286        H302   0.992       .  S
O288        H299   0.992       .  S
C290        C291   1.400       .  A
C290        O295   1.372       .  S
C291        C292   1.403       .  A
C291        H296   1.084       .  S
C292        C293   1.404   1_554  A
C293        C294   1.394   1_556  A
C293        O297   1.372       .  S
C294        H298   1.084   1_554  S
O295        H300   0.992       .  S
O297        H301   0.992       .  S
C303        C304   1.405   1_556  A
C303        C308   1.405       .  A
C303        H313   1.083       .  S
C304        C305   1.416       .  A
C304        C309   1.506       .  S
C305        C306   1.414       .  A
C305        O310   1.371       .  S
C306        C307   1.407       .  A
C306        H311   1.083       .  S
C307        C308   1.415   1_554  A
C308        O312   1.372       .  S
C309        C314   1.415       .  A
C309        C318   1.408       .  A
O310        H326   0.992       .  S
O312        H323   0.992       .  S
C314        C315   1.408       .  A
C314        O319   1.371       .  S
C315        C316   1.406       .  A
C315        H320   1.083   1_554  S
C316        C317   1.410       .  A
C317        C318   1.409       .  A
C317        O321   1.371       .  S
C318        H322   1.083       .  S
O319        H324   0.992       .  S
O321        H325   0.992   1_554  S
C327        C328   1.408       .  A
C327        C332   1.413       .  A
C327        H337   1.083       .  S
C328        C329   1.406   1_556  A
C328        C333   1.495       .  S
C329        C330   1.398       .  A
C329        O334   1.372       .  S
C330        C331   1.413   1_554  A
C330        H335   1.083       .  S
C331        C332   1.415       .  A
C332        O336   1.371       .  S
C333        C338   1.411       .  A
C333        C342   1.407       .  A
O334        H350   0.992       .  S
O336        H347   0.992       .  S
C338        C339   1.408       .  A
C338        O343   1.371       .  S
C339        C340   1.405       .  A
C339        H344   1.083       .  S
C340        C341   1.407       .  A
C341        C342   1.403       .  A
C341        O345   1.372   1_556  S
C342        H346   1.083   1_556  S
O343        H348   0.992       .  S
O345        H349   0.992       .  S
C351        C352   1.399       .  A
C351        C356   1.392       .  A
C351        H361   1.084       .  S
C352        C353   1.405       .  A
C352        C357   1.467       .  S
C353        C354   1.396       .  A
C353        O358   1.373       .  S
C354        C355   1.405       .  A
C354        H359   1.083       .  S
C355        C356   1.412       .  A
C356        O360   1.372       .  S
C357        C362   1.407       .  A
C357        C366   1.395       .  A
O358        H374   0.992       .  S
O360        H371   0.992       .  S
C362        C363   1.395       .  A
C362        O367   1.372       .  S
C363        C364   1.406       .  A
C363        H368   1.083       .  S
C364        C365   1.418       .  A
C365        C366   1.393       .  A
C365        O369   1.372       .  S
C366        H370   1.084       .  S
O367        H372   0.992       .  S
O369        H373   0.992       .  S
C375        C376   1.399       .  A
C375        C380   1.397       .  A
C375        H385   1.084       .  S
C376        C377   1.401       .  A
C376        C381   1.465       .  S
C377        C378   1.394       .  A
C377        O382   1.372       .  S
C378        C379   1.408       .  A
C378        H383   1.083       .  S
C379        C380   1.413       .  A
C380        O384   1.372       .  S
C381        C386   1.404       .  A
C381        C390   1.396       .  A
O382        H398   0.992       .  S
O384        H395   0.992       .  S
C386        C387   1.396       .  A
C386        O391   1.372       .  S
C387        C388   1.405       .  A
C387        H392   1.084       .  S
C388        C389   1.416       .  A
C389        C390   1.396       .  A
C389        O393   1.372       .  S
C390        H394   1.084       .  S
O391        H396   0.992       .  S
O393        H397   0.992       .  S
C399        C400   1.409       .  A
C399        C404   1.412       .  A
C399        H409   1.083       .  S
C400        C401   1.414   1_565  A
C400        C405   1.512       .  S
C401        C402   1.412       .  A
C401        O406   1.372       .  S
C402        C403   1.407   1_545  A
C402        H407   1.084       .  S
C403        C404   1.416       .  A
C404        O408   1.372       .  S
C405        C410   1.414       .  A
C405        C414   1.410   1_565  A
O406        H422   0.992       .  S
O408        H419   0.992       .  S
C410        C411   1.410       .  A
C410        O415   1.371       .  S
C411        C412   1.407       .  A
C411        H416   1.083       .  S
C412        C413   1.414   1_565  A
C413        C414   1.413       .  A
C413        O417   1.371       .  S
C414        H418   1.083       .  S
O415        H420   0.992       .  S
O417        H421   0.991       .  S
C423        C424   1.407       .  A
C423        C428   1.409       .  A
C423        H433   1.083       .  S
C424        C425   1.417   1_545  A
C424        C429   1.517       .  S
C425        C426   1.415       .  A
C425        O430   1.371       .  S
C426        C427   1.411   1_565  A
C426        H431   1.083       .  S
C427        C428   1.418       .  A
C428        O432   1.371       .  S
C429        C434   1.417   1_545  A
C429        C438   1.410       .  A
O430        H446   0.992       .  S
O432        H443   0.992       .  S
C434        C435   1.411       .  A
C434        O439   1.371       .  S
C435        C436   1.407   1_565  A
C435        H440   1.083       .  S
C436        C437   1.414       .  A
C437        C438   1.415       .  A
C437        O441   1.372       .  S
C438        H442   1.083       .  S
O439        H444   0.992       .  S
O441        H445   0.992       .  S
C447        C448   1.405       .  A
C447        C452   1.403       .  A
C447        H457   1.084       .  S
C448        C449   1.412       .  A
C448        C453   1.497       .  S
C449        C450   1.410       .  A
C449        O454   1.371       .  S
C450        C451   1.407       .  A
C450        H455   1.084       .  S
C451        C452   1.411       .  A
C452        O456   1.372       .  S
C453        C458   1.413       .  A
C453        C462   1.405       .  A
O454        H470   0.992       .  S
O456        H467   0.992       .  S
C458        C459   1.405       .  A
C458        O463   1.371       .  S
C459        C460   1.404       .  A
C459        H464   1.084       .  S
C460        C461   1.413       .  A
C461        C462   1.406       .  A
C461        O465   1.371       .  S
C462        H466   1.083       .  S
O463        H468   0.992       .  S
O465        H469   0.992       .  S
C471        C472   1.408       .  A
C471        C476   1.409       .  A
C471        H481   1.083       .  S
C472        C473   1.412       .  A
C472        C477   1.502       .  S
C473        C474   1.406       .  A
C473        O478   1.373       .  S
C474        C475   1.407       .  A
C474        H479   1.084       .  S
C475        C476   1.412       .  A
C476        O480   1.371       .  S
C477        C482   1.415       .  A
C477        C486   1.406       .  A
O478        H494   0.992       .  S
O480        H491   0.992       .  S
C482        C483   1.407       .  A
C482        O487   1.371       .  S
C483        C484   1.404       .  A
C483        H488   1.084       .  S
C484        C485   1.413       .  A
C485        C486   1.406       .  A
C485        O489   1.372       .  S
C486        H490   1.083       .  S
O487        H492   0.991       .  S
O489        H493   0.992       .  S
C495        C496   1.397   1_455  A
C495        C500   1.394       .  A
C495        H505   1.084       .  S
C496        C497   1.405       .  A
C496        C501   1.468       .  S
C497        C498   1.402       .  A
C497        O502   1.371       .  S
C498        C499   1.405   1_655  A
C498        H503   1.083       .  S
C499        C500   1.413       .  A
C500        O504   1.372       .  S
C501        C506   1.404       .  A
C501        C510   1.402   1_655  A
O502        H518   0.992       .  S
O504        H515   0.992       .  S
C506        C507   1.396       .  A
C506        O511   1.372       .  S
C507        C508   1.402       .  A
C507        H512   1.084       .  S
C508        C509   1.407   1_655  A
C509        C510   1.400       .  A
C509        O513   1.372       .  S
C510        H514   1.084       .  S
O511        H516   0.992       .  S
O513        H517   0.992       .  S
C519        C520   1.402   1_655  A
C519        C524   1.396       .  A
C519        H529   1.084       .  S
C520        C521   1.406       .  A
C520        C525   1.474       .  S
C521        C522   1.402       .  A
C521        O526   1.372       .  S
C522        C523   1.405       .  A
C522        H527   1.083       .  S
C523        C524   1.407   1_455  A
C524        O528   1.372       .  S
C525        C530   1.405       .  A
C525        C534   1.398   1_455  A
O526        H542   0.992       .  S
O528        H539   0.992       .  S
C530        C531   1.402       .  A
C530        O535   1.372       .  S
C531        C532   1.410   1_455  A
C531        H536   1.083       .  S
C532        C533   1.415       .  A
C533        C534   1.396       .  A
C533        O537   1.372       .  S
C534        H538   1.084       .  S
O535        H540   0.992       .  S
O537        H541   0.992       .  S
C543        C544   1.407       .  A
C543        C548   1.408       .  A
C543        H553   1.083       .  S
C544        C545   1.408       .  A
C544        C549   1.492       .  S
C545        C546   1.397       .  A
C545        O550   1.372   1_545  S
C546        C547   1.407       .  A
C546        H551   1.083   1_545  S
C547        C548   1.414       .  A
C548        O552   1.371       .  S
C549        C554   1.411       .  A
C549        C558   1.407       .  A
O550        H566   0.992       .  S
O552        H563   0.992       .  S
C554        C555   1.405   1_545  A
C554        O559   1.372   1_545  S
C555        C556   1.403   1_565  A
C555        H560   1.084       .  S
C556        C557   1.405       .  A
C557        C558   1.400       .  A
C557        O561   1.372       .  S
C558        H562   1.083       .  S
O559        H564   0.992   1_565  S
O561        H565   0.992       .  S
C567        C568   1.405       .  A
C567        C572   1.402       .  A
C567        H577   1.083       .  S
C568        C569   1.407       .  A
C568        C573   1.484       .  S
C569        C570   1.398       .  A
C569        O574   1.372       .  S
C570        C571   1.405       .  A
C570        H575   1.084       .  S
C571        C572   1.410       .  A
C572        O576   1.372       .  S
C573        C578   1.408       .  A
C573        C582   1.406       .  A
O574        H590   0.992       .  S
O576        H587   0.992   1_565  S
C578        C579   1.400       .  A
C578        O583   1.371       .  S
C579        C580   1.405       .  A
C579        H584   1.084       .  S
C580        C581   1.407   1_565  A
C581        C582   1.400   1_545  A
C581        O585   1.372       .  S
C582        H586   1.084   1_565  S
O583        H588   0.992       .  S
O585        H589   0.992       .  S
C591        C592   1.408   1_455  A
C591        C596   1.404       .  A
C591        H601   1.083       .  S
C592        C593   1.411       .  A
C592        C597   1.498   1_655  S
C593        C594   1.406       .  A
C593        O598   1.371       .  S
C594        C595   1.406       .  A
C594        H599   1.083       .  S
C595        C596   1.408   1_655  A
C596        O600   1.371       .  S
C597        C602   1.409       .  A
C597        C606   1.408   1_455  A
O598        H614   0.992       .  S
O600        H611   0.992       .  S
C602        C603   1.403       .  A
C602        O607   1.372       .  S
C603        C604   1.408       .  A
C603        H608   1.083       .  S
C604        C605   1.415   1_455  A
C605        C606   1.409       .  A
C605        O609   1.371       .  S
C606        H610   1.083       .  S
O607        H612   0.992       .  S
O609        H613   0.992       .  S
C615        C616   1.405   1_455  A
C615        C620   1.407       .  A
C615        H625   1.083       .  S
C616        C617   1.409       .  A
C616        C621   1.492       .  S
C617        C618   1.406       .  A
C617        O622   1.371       .  S
C618        C619   1.405       .  A
C618        H623   1.083       .  S
C619        C620   1.410   1_655  A
C620        O624   1.372       .  S
C621        C626   1.409   1_655  A
C621        C630   1.400       .  A
O622        H638   0.992   1_655  S
O624        H635   0.992       .  S
C626        C627   1.409       .  A
C626        O631   1.371       .  S
C627        C628   1.410   1_455  A
C627        H632   1.083       .  S
C628        C629   1.420       .  A
C629        C630   1.404       .  A
C629        O633   1.372       .  S
C630        H634   1.084       .  S
O631        H636   0.992       .  S
O633        H637   0.992       .  S
