geometry optimzed in LAMMPS
_audit_creation_date              2020-11-30 
_audit_creation_method            'lammps2cif' 
_symmetry_space_group_name_H-M    'P1' 
_symmetry_Int_Tables_number       1 
_symmetry_cell_setting            triclinic 
loop_ 
_symmetry_equiv_pos_as_xyz 
  x,y,z 
_cell_length_a                    37.66192336954399 
_cell_length_b                    37.862724885597935 
_cell_length_c                    36.674958893397154 
_cell_angle_alpha                 89.57125984852091 
_cell_angle_beta                  90.01340529311098 
_cell_angle_gamma                 90.03369918614816 
loop_ 
_atom_site_label 
_atom_site_type_symbol 
_atom_site_fract_x 
_atom_site_fract_y 
_atom_site_fract_z 
_atom_site_charge 
C1          C  0.44140879  0.31104996  0.37963166     0.04080
C2          C  0.41217480  0.29427892  0.36338164    -0.12070
C3          C  0.39279555  0.31111530  0.33563743     0.01580
C4          C  0.40401466  0.34414127  0.32257759    -0.10590
C5          C  0.43355917  0.36090293  0.33791026     0.04080
C6          C  0.45124902  0.34485286  0.36728195    -0.10010
H7          H  0.40498011  0.26778417  0.37177151     0.09670
H8          H  0.38967761  0.35671547  0.30046253     0.07200
H9          H  0.47322674  0.35843227  0.38006845     0.07050
C10         C  0.36738390  0.38352652  0.10295205     0.04080
C11         C  0.39728882  0.39915869  0.11954515    -0.12070
C12         C  0.41662083  0.38128218  0.14656175     0.01580
C13         C  0.40476238  0.34844478  0.15917252    -0.10590
C14         C  0.37513705  0.33224921  0.14336171     0.04080
C15         C  0.35824020  0.34864153  0.11357075    -0.10010
H16         H  0.40399739  0.42647553  0.11417578     0.09670
H17         H  0.41697525  0.33670285  0.18314106     0.07200
H18         H  0.33593809  0.33530634  0.10124276     0.07050
C19         C  0.18171326  0.38220676  0.38884383     0.04080
C20         C  0.19649920  0.35182094  0.37291448    -0.12070
C21         C  0.17874841  0.33413471  0.34479204     0.01580
C22         C  0.14619571  0.34729610  0.33204848    -0.10590
C23         C  0.13031717  0.37670014  0.34850525     0.04080
C24         C  0.14751654  0.39311629  0.37780161    -0.10010
H25         H  0.22329679  0.34380278  0.37980894     0.09670
H26         H  0.13423919  0.33593907  0.30792402     0.07200
H27         H  0.13585746  0.41664616  0.38939715     0.07050
C28         C  0.43825613  0.14187389  0.10826242     0.04080
C29         C  0.40623299  0.15454197  0.12187270    -0.12070
C30         C  0.38873546  0.13710699  0.15052087     0.01580
C31         C  0.40361984  0.10619499  0.16550863    -0.10590
C32         C  0.43576090  0.09282243  0.15175071     0.04080
C33         C  0.45258805  0.11062970  0.12278121    -0.10010
H34         H  0.39617968  0.17926860  0.11121927     0.09670
H35         H  0.39054565  0.09294920  0.18808657     0.07200
H36         H  0.47764249  0.10117028  0.11225034     0.07050
C37         C  0.44700776  0.39434421  0.32247541     0.43410
N38         N  0.98146957  0.43814436  0.31191725     0.02300
C39         C  0.48479196  0.04329874  0.15613110    -0.05570
H40         H  0.99087240  0.41090142  0.12937244     0.07790
C41         C  0.10916872  0.40893164  0.20799701    -0.05930
Co42       Co  0.45974392  0.47854481  0.24483629     0.74180
N43         N  0.98555144  0.44012380  0.17950803    -0.25100
Co44       Co  0.02707404  0.47686939  0.18070424     0.74070
C45         C  0.09592458  0.39060231  0.17588557     0.43510
N46         N  0.08583968  0.43722973  0.29134234     0.01920
N47         N  0.06459182  0.43687646  0.18459042     0.02020
N48         N  0.44076020  0.04383662  0.19820588    -0.46190
H49         H  0.41279238  0.40713373  0.27184487     0.07780
N50         N  0.46061957  0.44047665  0.20471977     0.02310
N51         N  0.06863176  0.01388370  0.18228020     0.02050
C52         C  0.10798022  0.05274267  0.16781935     0.43650
N53         N  0.06124873  0.43739395  0.31691050    -0.24560
C54         C  0.43537797  0.04132035  0.29085833    -0.05480
N55         N  0.97602007  0.41148516  0.33472532    -0.45670
N56         N  0.07850509  0.03596654  0.15580749    -0.45890
C57         C  0.44366046  0.05535758  0.32660586     0.43430
N58         N  0.46327640  0.01750307  0.20413161     0.02300
N59         N  0.06059498  0.01388062  0.31628216    -0.24580
N60         N  0.45791257  0.43948392  0.28527454    -0.25070
N61         N  0.08633073  0.01435885  0.29183578     0.01940
H62         H  0.04850928  0.04599482  0.36269998     0.07830
H63         H  0.13971505  0.04204292  0.22024307     0.07860
N64         N  0.98911802  0.01663250  0.17982281    -0.25120
N65         N  0.08810271  0.43708345  0.21127014    -0.24740
N66         N  0.98127931  0.01477218  0.31346938     0.02300
C67         C  0.44334905  0.40057797  0.16762804     0.43700
C68         C  0.06997087  0.41271075  0.34208009    -0.05990
N69         N  0.09091750  0.01400234  0.21005192    -0.24730
H70         H  0.13075500  0.40220312  0.22616573     0.07850
N71         N  0.43478923  0.41770170  0.19839050    -0.45960
H72         H  0.05613747  0.40793165  0.36747616     0.07830
C73         C  0.09785055  0.05764664  0.32727103     0.43530
C74         C  0.43493250  0.41279696  0.28963282    -0.05480
Co75       Co  0.02107199  0.47595343  0.31551445     0.73820
N76         N  0.11089103  0.41348860  0.29729215    -0.45670
C77         C  0.45266222  0.06131131  0.16833366     0.43800
N78         N  0.47188474  0.03701751  0.33962821    -0.45660
Co79       Co  0.08841283  0.47589089  0.25115077     0.73890
C80         C  0.11639305  0.03793480  0.20357557    -0.05990
C81         C  0.47666821  0.41595553  0.15441593    -0.05550
N82         N  0.45949776  0.01617105  0.28532842    -0.25080
N83         N  0.06839591  0.40955853  0.16258093    -0.45840
H84         H  0.00166854  0.04861108  0.13289766     0.07810
C85         C  0.06552108  0.04020180  0.33978596    -0.05970
Cl86       Cl  0.02408548  0.47693302  0.24805331    -0.48970
C87         C  0.10264800  0.39624225  0.32832937     0.43560
H88         H  0.41254011  0.04645881  0.27373193     0.07770
N89         N  0.10926396  0.04030596  0.29736398    -0.45680
C90         C  0.11167052  0.31604249  0.10871886     0.04080
C91         C  0.09439979  0.34211786  0.12991332    -0.12070
C92         C  0.11217408  0.36000279  0.15775840     0.01580
C93         C  0.14576192  0.34870527  0.16840583    -0.10590
C94         C  0.16258370  0.32115508  0.15035076     0.04080
C95         C  0.14683843  0.30697908  0.11898548    -0.10010
H96         H  0.06683787  0.34846351  0.12618275     0.09670
H97         H  0.15878011  0.36129896  0.19104153     0.07200
H98         H  0.16267899  0.28882700  0.10336921     0.07050
C99         C  0.36575425  0.06741008  0.38889641     0.04080
C100        C  0.39984828  0.05664098  0.37739366    -0.12070
C101        C  0.41696364  0.07410447  0.34840251     0.01580
C102        C  0.40143107  0.10428924  0.33301819    -0.10590
C103        C  0.36874304  0.11670321  0.34553474     0.04080
C104        C  0.35091571  0.09821274  0.37330357    -0.10010
H105        H  0.41145917  0.03263721  0.38832310     0.09670
H106        H  0.41337284  0.11641309  0.30909401     0.07200
H107        H  0.32396603  0.10580960  0.37992262     0.07050
C108        C  0.10979711  0.14147805  0.38158949     0.04080
C109        C  0.09780897  0.10801225  0.37083038    -0.12070
C110        C  0.11363052  0.09039796  0.34155624     0.01580
C111        C  0.14343039  0.10524999  0.32466231    -0.10590
C112        C  0.15685834  0.13789730  0.33608958     0.04080
C113        C  0.13970544  0.15611949  0.36427309    -0.10010
H114        H  0.07530368  0.09629997  0.38466856     0.09670
H115        H  0.15591686  0.09138971  0.30240046     0.07200
H116        H  0.14884901  0.18220460  0.37176080     0.07050
C117        C  0.18141826  0.07163379  0.10009751     0.04080
C118        C  0.15049683  0.05662991  0.11560506    -0.12070
C119        C  0.13330684  0.07295183  0.14499310     0.01580
C120        C  0.14633226  0.10520337  0.15783807    -0.10590
C121        C  0.17581438  0.12149424  0.14142733     0.04080
C122        C  0.19295646  0.10489067  0.11216925    -0.10010
H123        H  0.14227791  0.03036619  0.10756492     0.09670
H124        H  0.13505164  0.11643315  0.18236217     0.07200
H125        H  0.21788026  0.11553709  0.10218599     0.07050
C126        C  0.34941841  0.14248439  0.32297583     0.43410
N127        N  0.31045579  0.18158531  0.30902855     0.02300
C128        C  0.21155009  0.18137839  0.14856775    -0.05570
H129        H  0.34476868  0.20210036  0.12977571     0.07790
C130        C  0.34111151  0.31377703  0.20062227    -0.05930
Co131      Co  0.27272392  0.16228807  0.24051527     0.74180
N132        N  0.31201828  0.18980706  0.17580659    -0.25100
Co133      Co  0.27451286  0.22951600  0.17569958     0.74070
C134        C  0.35592569  0.30549713  0.16511875     0.43510
N135        N  0.31529186  0.28577888  0.28653707     0.01920
N136        N  0.31412372  0.26862880  0.17782120     0.02020
N137        N  0.21088236  0.14054219  0.19363699    -0.45950
H138        H  0.33864684  0.11121045  0.27077789     0.07780
N139        N  0.31195794  0.16405054  0.20025030     0.02310
N140        N  0.23705550  0.26952656  0.17825781     0.02050
C141        C  0.19553879  0.30624168  0.16584070     0.43650
N142        N  0.31419532  0.26008512  0.31101267    -0.24560
C143        C  0.20590771  0.14065386  0.28510786    -0.05480
N144        N  0.33265525  0.17163833  0.33529326    -0.45670
N145        N  0.21162694  0.27648524  0.15430185    -0.45890
C146        C  0.18817349  0.15326458  0.31791391     0.43430
N147        N  0.23448212  0.16549968  0.20009035     0.02300
N148        N  0.23708958  0.26475671  0.31152350    -0.24580
N149        N  0.31052654  0.15957407  0.28133692    -0.25070
N150        N  0.23775682  0.28956061  0.28608892     0.01940
H151        H  0.20775846  0.25984375  0.36199093     0.07830
H152        H  0.20846411  0.33933659  0.21692608     0.07860
N153        N  0.23546178  0.19000073  0.17434681    -0.25120
N154        N  0.31528909  0.29016019  0.20587726    -0.24740
N155        N  0.23340509  0.18582735  0.30713396     0.02300
C156        C  0.35612157  0.15282714  0.16550583     0.43700
C157        C  0.34200905  0.26324355  0.33349342    -0.05990
N158        N  0.23843071  0.29269960  0.20494334    -0.24730
H159        H  0.34629930  0.33633648  0.21775550     0.07850
N160        N  0.33812107  0.14118066  0.19514204    -0.45960
H161        H  0.34783936  0.24602623  0.35636238     0.07830
C162        C  0.19785188  0.30729278  0.32354643     0.43530
C163        C  0.33453265  0.13426672  0.28749447    -0.05480
Co164      Co  0.27368418  0.22303923  0.31055278     0.73820
N165        N  0.34279559  0.30703100  0.29108364    -0.45670
C166        C  0.19472636  0.14882524  0.16203153     0.43800
N167        N  0.20672432  0.18127825  0.33017934    -0.45660
Co168      Co  0.27670510  0.29009233  0.24597051     0.73890
C169        C  0.21320187  0.31690827  0.19952315    -0.05990
C170        C  0.33876689  0.18500514  0.15267314    -0.05550
N171        N  0.23352789  0.16244256  0.28061347    -0.25080
N172        N  0.33720231  0.27775845  0.15196110    -0.45840
H173        H  0.20779100  0.19502132  0.12285380     0.07810
C174        C  0.21292536  0.27389901  0.33676848    -0.05970
Cl175      Cl  0.27428809  0.22623409  0.24315538    -0.48970
C176        C  0.36096323  0.29436835  0.32007421     0.43560
H177        H  0.19942582  0.11873205  0.26759995     0.07770
N178        N  0.21519331  0.31555726  0.29250583    -0.45680
C179        C  0.27298046  0.47449946  0.51152515     0.01520
C180        C  0.27335213  0.47446573  0.47412313     0.01520
C181        C  0.02294272  0.23030947  0.97550091     0.01520
C182        C  0.02253915  0.23263087  0.01295497     0.01520
C183        C  0.02603081  0.22748942  0.47938036     0.01520
C184        C  0.02509187  0.22649739  0.51671590     0.01520
C185        C  0.27300361  0.47437270  0.01808071     0.01520
C186        C  0.26796227  0.46936782  0.98067468     0.01520
C187        C  0.35213401  0.39268971  0.87392905     0.04080
C188        C  0.38437589  0.40769481  0.86250904    -0.12070
C189        C  0.40466111  0.39118722  0.83530608     0.01580
C190        C  0.39253534  0.35945834  0.82017589    -0.10590
C191        C  0.36064376  0.34416882  0.83192266     0.04080
C192        C  0.34055714  0.36094080  0.85880022    -0.10010
H193        H  0.39310924  0.43232137  0.87436474     0.09670
H194        H  0.40811799  0.34654676  0.79937976     0.07200
H195        H  0.31566004  0.34952387  0.86792490     0.07050
C196        C  0.43395883  0.13624192  0.88880255     0.04080
C197        C  0.40061085  0.14775949  0.87561668    -0.12070
C198        C  0.38416929  0.13059790  0.84631494     0.01580
C199        C  0.39941767  0.09993491  0.83229145    -0.10590
C200        C  0.43116160  0.08654416  0.84655468     0.04080
C201        C  0.44849504  0.10479531  0.87467704    -0.10010
H202        H  0.38914490  0.17206745  0.88559927     0.09670
H203        H  0.38796793  0.08796073  0.80820615     0.07200
H204        H  0.47491416  0.09652710  0.88269499     0.07050
C205        C  0.18919156  0.05961042  0.88160457     0.04080
C206        C  0.15934967  0.04508973  0.86410250    -0.12070
C207        C  0.14274467  0.06313629  0.83511418     0.01580
C208        C  0.15693445  0.09529546  0.82280443    -0.10590
C209        C  0.18675891  0.10998815  0.83968076     0.04080
C210        C  0.20187519  0.09270870  0.86983434    -0.10010
H211        H  0.14964701  0.01929609  0.87226499     0.09670
H212        H  0.14491499  0.10895810  0.79992663     0.07200
H213        H  0.22416190  0.10458367  0.88373113     0.07050
C214        C  0.11778658  0.31804313  0.88704097     0.04080
C215        C  0.10348590  0.34900901  0.87118662    -0.12070
C216        C  0.12154798  0.36740176  0.84361483     0.01580
C217        C  0.15321489  0.35354580  0.82977631    -0.10590
C218        C  0.16829746  0.32312714  0.84531054     0.04080
C219        C  0.15159658  0.30672553  0.87521278    -0.10010
H220        H  0.07673146  0.35731146  0.87753044     0.09670
H221        H  0.16502895  0.36524858  0.80558581     0.07200
H222        H  0.16369021  0.28337094  0.88696018     0.07050
C223        C  0.11749413  0.13321017  0.60136074     0.04080
C224        C  0.15044023  0.14514015  0.61492955    -0.12070
C225        C  0.16719420  0.12736858  0.64392635     0.01580
C226        C  0.15257393  0.09583230  0.65728262    -0.10590
C227        C  0.12143022  0.08201458  0.64215553     0.04080
C228        C  0.10386679  0.10085210  0.61447940    -0.10010
H229        H  0.16131102  0.17007273  0.60550640     0.09670
H230        H  0.16402309  0.08336779  0.68126765     0.07200
H231        H  0.07767820  0.09217216  0.60622251     0.07050
C232        C  0.35683154  0.06003002  0.60970864     0.04080
C233        C  0.38691516  0.04485347  0.62589864    -0.12070
C234        C  0.40575544  0.06259204  0.65332652     0.01580
C235        C  0.39303144  0.09508972  0.66608143    -0.10590
C236        C  0.36256032  0.11033553  0.65053468     0.04080
C237        C  0.34561768  0.09330101  0.62145793    -0.10010
H238        H  0.39504494  0.01873750  0.61765669     0.09670
H239        H  0.40668418  0.10837080  0.68808125     0.07200
H240        H  0.32299098  0.10542961  0.60829393     0.07050
C241        C  0.34792695  0.31094216  0.81609643     0.43410
N242        N  0.31604381  0.26522564  0.80685513     0.02300
C243        C  0.31482513  0.16062148  0.65298843    -0.05570
H244        H  0.30538143  0.29172781  0.62307228     0.07790
C245        C  0.18523950  0.28874128  0.70140487    -0.05930
Co246      Co  0.33895112  0.22588806  0.74033816     0.74180
N247        N  0.31130648  0.26347675  0.67424861    -0.25100
Co248      Co  0.27111040  0.22525613  0.67662561     0.74070
C249        C  0.19679331  0.30625034  0.66781774     0.43510
N250        N  0.21196826  0.26324593  0.78730780     0.01920
N251        N  0.23183392  0.26332257  0.67958017     0.02020
N252        N  0.35915590  0.16072187  0.69479684    -0.45950
H253        H  0.38263738  0.29977230  0.76564065     0.07780
N254        N  0.33625450  0.26407433  0.69947026     0.02310
N255        N  0.23118401  0.18669398  0.67954332     0.02050
C256        C  0.19338718  0.14613732  0.66648251     0.43650
N257        N  0.23691975  0.26336405  0.81253177    -0.24560
C258        C  0.36602988  0.16390878  0.78786476    -0.05480
N259        N  0.32005841  0.29232054  0.82896853    -0.45670
N260        N  0.22192297  0.16409394  0.65368893    -0.45890
C261        C  0.35782905  0.14943340  0.82375128     0.43430
N262        N  0.33641242  0.18687793  0.70027046     0.02300
N263        N  0.23954191  0.18688921  0.81300697    -0.24580
N264        N  0.33949830  0.26496958  0.78011051    -0.25070
N265        N  0.21362205  0.18612564  0.78879857     0.01940
H266        H  0.25223344  0.15466241  0.85980293     0.07830
H267        H  0.16170507  0.15609343  0.71887429     0.07860
N268        N  0.31036775  0.18718308  0.67619108    -0.25120
N269        N  0.20851157  0.26255501  0.70643558    -0.24740
N270        N  0.31890240  0.18862102  0.80958454     0.02300
C271        C  0.35253105  0.30405199  0.66111370     0.43700
C272        C  0.22833906  0.28765946  0.83766801    -0.05990
N273        N  0.20915199  0.18593770  0.70750239    -0.24730
H274        H  0.16307439  0.29443400  0.71912497     0.07850
N275        N  0.36132189  0.28757943  0.69249653    -0.45960
H276        H  0.24262718  0.29251617  0.86271688     0.07830
C277        C  0.20287314  0.14250428  0.82468413     0.43530
C278        C  0.36101703  0.29289399  0.78373207    -0.05480
Co279      Co  0.27795353  0.22604116  0.81129727     0.73820
N280        N  0.18653580  0.28645845  0.79364444    -0.45670
C281        C  0.34720950  0.14311156  0.66526150     0.43800
N282        N  0.32879114  0.16663796  0.83611054    -0.45660
Co283      Co  0.21022859  0.22437203  0.74758534     0.73890
C284        C  0.18475046  0.16088624  0.70194419    -0.05990
C285        C  0.31962830  0.28751016  0.64834151    -0.05550
N286        N  0.34095130  0.18815384  0.78163375    -0.25080
N287        N  0.22591667  0.28916453  0.65586525    -0.45840
H288        H  0.29745905  0.15481742  0.63034910     0.07810
C289        C  0.23512170  0.16031328  0.83682613    -0.05970
Cl290      Cl  0.27456263  0.22531806  0.74396081    -0.48970
C291        C  0.19521308  0.30354837  0.82449386     0.43560
H292        H  0.38914715  0.15950692  0.77100378     0.07770
N293        N  0.19108242  0.15988824  0.79474813    -0.45680
C294        C  0.43107412  0.31841026  0.60018323     0.04080
C295        C  0.39662015  0.30767195  0.61083638    -0.12070
C296        C  0.37937758  0.32391976  0.64020164     0.01580
C297        C  0.39465126  0.35370543  0.65625938    -0.10590
C298        C  0.42715765  0.36704198  0.64381268     0.04080
C299        C  0.44558288  0.34896478  0.61638306    -0.10010
H300        H  0.38458323  0.28452420  0.59890217     0.09670
H301        H  0.38242363  0.36505567  0.68024492     0.07200
H302        H  0.47263109  0.35683647  0.61050693     0.07050
C303        C  0.18773432  0.38885828  0.60971126     0.04080
C304        C  0.15706336  0.40381360  0.62522878    -0.12070
C305        C  0.13853694  0.38591378  0.65297044     0.01580
C306        C  0.15124610  0.35344024  0.66573364    -0.10590
C307        C  0.18199076  0.33855163  0.65124440     0.04080
C308        C  0.19938284  0.35564415  0.62235022    -0.10010
H309        H  0.14829087  0.42981602  0.61668401     0.09670
H310        H  0.13726747  0.33974011  0.68728663     0.07200
H311        H  0.22261968  0.34352199  0.61039336     0.07050
C312        C  0.45040893  0.06029222  0.82481987     0.43410
N313        N  0.48814267  0.02023704  0.81067586     0.02300
C314        C  0.08532794  0.02234080  0.64921980    -0.05570
H315        H  0.45001479  0.99798052  0.63302907     0.07790
C316        C  0.46010464  0.38572738  0.70187998    -0.05930
Co317      Co  0.02459636  0.03983733  0.74125247     0.74180
N318        N  0.48443143  0.01159357  0.67738940    -0.25100
Co319      Co  0.02323152  0.47307695  0.67703073     0.74070
C320        C  0.44567864  0.39355292  0.66602745     0.43510
N321        N  0.48407839  0.41571306  0.78850226     0.01920
N322        N  0.48489237  0.43268577  0.67941616     0.02020
N323        N  0.08570481  0.06278417  0.69405936    -0.45950
H324        H  0.46021708  0.09089350  0.77163292     0.07780
N325        N  0.48447546  0.03731975  0.70151698     0.02310
N326        N  0.06207218  0.43453322  0.68009642     0.02050
C327        C  0.10665973  0.40124636  0.66985351     0.43650
N328        N  0.48493860  0.44123740  0.81284377    -0.24560
C329        C  0.09257533  0.06133853  0.78480769    -0.05480
N330        N  0.46696471  0.03088771  0.83743007    -0.45670
N331        N  0.08881062  0.42969650  0.65723041    -0.45890
C332        C  0.11093619  0.04827242  0.81737760     0.43430
N333        N  0.06218395  0.03767499  0.70050616     0.02300
N334        N  0.06226934  0.43731166  0.81270629    -0.24580
N335        N  0.48755366  0.04207193  0.78250550    -0.25070
N336        N  0.06160271  0.41307374  0.78713300     0.01940
H337        H  0.09281598  0.44153408  0.86245263     0.07830
H338        H  0.09460616  0.36691807  0.72070623     0.07860
N339        N  0.06132945  0.01343990  0.67492499    -0.25120
N340        N  0.48431294  0.41087888  0.70758507    -0.24740
N341        N  0.06514462  0.01622078  0.80766925     0.02300
C342        C  0.43836623  0.04669821  0.66853974     0.43700
C343        C  0.45692885  0.43784759  0.83515274    -0.05990
N344        N  0.06134111  0.41106086  0.70689160    -0.24730
H345        H  0.45606491  0.36260782  0.71888571     0.07850
N346        N  0.45723619  0.05913979  0.69711866    -0.45960
H347        H  0.45064790  0.45509548  0.85760389     0.07830
C348        C  0.10271620  0.39517259  0.82319139     0.43530
C349        C  0.46419005  0.06779586  0.78868350    -0.05480
Co350      Co  0.02516151  0.47874184  0.81193958     0.73820
N351        N  0.45648081  0.39451025  0.79293445    -0.45670
C352        C  0.10202240  0.05476438  0.66264917     0.43800
N353        N  0.09232487  0.02034446  0.83012436    -0.45660
Co354      Co  0.02270322  0.41213655  0.74766812     0.73890
C355        C  0.08847542  0.38879191  0.70269756    -0.05990
C356        C  0.45647460  0.01528786  0.65537734    -0.05550
N357        N  0.06462604  0.03980312  0.78094350    -0.25080
N358        N  0.46291038  0.42250556  0.65314410    -0.45840
H359        H  0.08952266  0.00871878  0.62377082     0.07810
C360        C  0.08719206  0.42794117  0.83727369    -0.05970
Cl361      Cl  0.02385554  0.47596179  0.74447385    -0.48970
C362        C  0.43812380  0.40678421  0.82182574     0.43560
H363        H  0.09900894  0.08329019  0.76699150     0.07770
N364        N  0.08481052  0.38745018  0.79260244    -0.45680
C365        C  0.19097685  0.01946357  0.93720296     0.24550
C366        C  0.20893439  0.03920918  0.91004749    -0.23560
C367        C  0.24635287  0.03811055  0.90912521     0.19460
C368        C  0.26516315  0.01764755  0.93421139     0.24490
C369        C  0.24718580  0.99638644  0.95989514    -0.23500
C370        C  0.20994101  0.99775998  0.96152491     0.19390
F371        F  0.19201783  0.47718844  0.98572225    -0.13460
F372        F  0.15506531  0.02078571  0.93995591    -0.15820
F373        F  0.30117632  0.01681899  0.93214765    -0.15820
F374        F  0.26492693  0.05497450  0.88244990    -0.13460
C375        C  0.31420886  0.41826832  0.96498250     0.24550
C376        C  0.28560226  0.44125762  0.95552788    -0.23560
C377        C  0.27539272  0.43974901  0.91797441     0.19460
C378        C  0.29780247  0.42551746  0.89152074     0.24490
C379        C  0.32990286  0.40991345  0.90156168    -0.23500
C380        C  0.33719636  0.40498684  0.93846177     0.19390
F381        F  0.36462567  0.38390191  0.94886956    -0.13460
F382        F  0.31543762  0.40050067  0.99677792    -0.15820
F383        F  0.28784280  0.42656679  0.85593117    -0.15820
F384        F  0.24314564  0.45118709  0.90632152    -0.13460
C385        C  0.06952787  0.21541020  0.56642177     0.24550
C386        C  0.04812472  0.20183373  0.53844143    -0.23560
C387        C  0.04913777  0.16525542  0.53165574     0.19460
C388        C  0.07292483  0.14332579  0.55057817     0.24490
C389        C  0.09460584  0.15696438  0.57852585    -0.23500
C390        C  0.09189388  0.19327358  0.58664606     0.19390
F391        F  0.10981603  0.20741362  0.61515713    -0.13460
F392        F  0.06889952  0.25039762  0.57426067    -0.15820
F393        F  0.07473424  0.10871041  0.54137490    -0.15820
F394        F  0.02669289  0.15052662  0.50711970    -0.13460
C395        C  0.50332389  0.28749084  0.53421376     0.24550
C396        C  0.50098844  0.25052478  0.53755729    -0.23560
C397        C  0.47518687  0.23599099  0.56078910     0.19460
C398        C  0.45235908  0.25776509  0.58062094     0.24490
C399        C  0.45391090  0.29501090  0.57689353    -0.23500
C400        C  0.47955162  0.30942266  0.55285863     0.19390
F401        F  0.48165142  0.34480762  0.54706375    -0.13460
F402        F  0.02903180  0.30243562  0.51323375    -0.15820
F403        F  0.42982502  0.24198987  0.60458608    -0.15820
F404        F  0.47187837  0.20038942  0.56409661    -0.13460
C405        C  0.06958072  0.31090156  0.93482926     0.24550
C406        C  0.09525675  0.29545942  0.91180838    -0.23560
C407        C  0.09648179  0.25807668  0.91017407     0.19460
C408        C  0.07375827  0.23727818  0.93163437     0.24490
C409        C  0.04770591  0.25296623  0.95347175    -0.23500
C410        C  0.04490364  0.28995182  0.95347667     0.19390
F411        F  0.01722980  0.30595201  0.97014944    -0.13460
F412        F  0.06793816  0.34640803  0.93939612    -0.15820
F413        F  0.07664136  0.20156254  0.93037335    -0.15820
F414        F  0.11830144  0.24121267  0.88659216    -0.13460
C415        C  0.45771662  0.19653305  0.90475454     0.24550
C416        C  0.45602645  0.15994964  0.91233863    -0.23560
C417        C  0.47731864  0.14637504  0.94087393     0.19460
C418        C  0.49954809  0.16875470  0.96111321     0.24490
C419        C  0.49996660  0.20542546  0.95426432    -0.23500
C420        C  0.47890975  0.21887964  0.92571236     0.19390
F421        F  0.47866848  0.25402719  0.91807607    -0.13460
F422        F  0.43994078  0.21081381  0.87600574    -0.15820
F423        F  0.52094418  0.15450847  0.98711636    -0.15820
F424        F  0.47655420  0.11143348  0.94937348    -0.13460
C425        C  0.27839171  0.01969009  0.56035550     0.24550
C426        C  0.29508239  0.99916396  0.53357635    -0.23560
C427        C  0.33234928  0.99962832  0.53105933     0.19460
C428        C  0.35241664  0.02064053  0.55461908     0.24490
C429        C  0.33570214  0.04019907  0.58233579    -0.23500
C430        C  0.29838399  0.03938089  0.58485151     0.19390
F431        F  0.28109406  0.05620483  0.61217953    -0.13460
F432        F  0.24245335  0.51986381  0.56351386    -0.15820
F433        F  0.38822434  0.02156829  0.55046787    -0.15820
F434        F  0.34942682  0.97864069  0.50689767    -0.13460
C435        C  0.24647210  0.40988435  0.58564249     0.24550
C436        C  0.20919379  0.40892464  0.58249226    -0.23560
C437        C  0.19287709  0.42840834  0.55416498     0.19460
C438        C  0.21329419  0.44934076  0.53049958     0.24490
C439        C  0.25052898  0.44983279  0.53359526    -0.23500
C440        C  0.26681289  0.42945325  0.56106618     0.19390
F441        F  0.30269270  0.42933076  0.56482706    -0.13460
F442        F  0.26339164  0.39333654  0.61365424    -0.15820
F443        F  0.19656938  0.47022721  0.50565952    -0.15820
F444        F  0.15713318  0.42746283  0.54948846    -0.13460
C445        C  0.21764585  0.01714930  0.09496767     0.24550
C446        C  0.20619404  0.04880217  0.07907066    -0.23560
C447        C  0.22205904  0.05958850  0.04616891     0.19460
C448        C  0.24643822  0.03741411  0.02819810     0.24490
C449        C  0.25309944  0.00238245  0.04079061    -0.23500
C450        C  0.24087793  0.99474101  0.07676759     0.19390
F451        F  0.25261106  0.46700095  0.09661550    -0.13460
F452        F  0.20763818  0.00846788  0.12950006    -0.15820
F453        F  0.26556036  0.05167531  0.00051396    -0.15820
F454        F  0.21446945  0.09181123  0.03169389    -0.13460
C455        C  0.10570916  0.18173349  0.43616258     0.24550
C456        C  0.08897082  0.16216839  0.40845125    -0.23560
C457        C  0.05170337  0.16335120  0.40558785     0.19460
C458        C  0.03170650  0.18308418  0.42994208     0.24490
C459        C  0.04832168  0.20327158  0.45706171    -0.23500
C460        C  0.08557758  0.20261711  0.45986669     0.19390
F461        F  0.10251484  0.22303535  0.48467226    -0.13460
F462        F  0.14151608  0.18074136  0.44027775    -0.15820
F463        F  0.99579767  0.18295551  0.42655197    -0.15820
F464        F  0.03445636  0.14662222  0.37813950    -0.13460
C465        C  0.32009788  0.05773332  0.43869101     0.24550
C466        C  0.34324935  0.04372096  0.41224331    -0.23560
C467        C  0.34242020  0.00694563  0.40605568     0.19460
C468        C  0.32003071  0.98489022  0.42640886     0.24490
C469        C  0.29696950  0.99890661  0.45269602    -0.23500
C470        C  0.29656067  0.03573708  0.45789903     0.19390
F471        F  0.27289453  0.05059134  0.48108850    -0.13460
F472        F  0.32016619  0.09281744  0.44605716    -0.15820
F473        F  0.32092009  0.44955619  0.42037509    -0.15820
F474        F  0.36216256  0.99220761  0.37920340    -0.13460
C475        C  0.03647664  0.28961009  0.04447967     0.24550
C476        C  0.04785647  0.25691402  0.03149594    -0.23560
C477        C  0.08263158  0.24597456  0.03877447     0.19460
C478        C  0.10325604  0.26409389  0.06427001     0.24490
C479        C  0.09203462  0.29729918  0.07823337    -0.23500
C480        C  0.05963414  0.31105007  0.06417406     0.19390
F481        F  0.04994892  0.34522904  0.06867078    -0.13460
F482        F  0.00283850  0.30094616  0.03806057    -0.15820
F483        F  0.13240814  0.24693520  0.07670112    -0.15820
F484        F  0.09439167  0.21458084  0.02574898    -0.13460
C485        C  0.49381911  0.17336593  0.09249499     0.24550
C486        C  0.45912854  0.16424760  0.08293186    -0.23560
C487        C  0.44387170  0.17963934  0.05161409     0.19460
C488        C  0.46348031  0.20329060  0.02994302     0.24490
C489        C  0.49965560  0.20997374  0.03759047    -0.23500
C490        C  0.51392167  0.19533520  0.07016392     0.19390
F491        F  0.04735409  0.20207858  0.08155260    -0.13460
F492        F  0.50809893  0.16200624  0.12453597    -0.15820
F493        F  0.44656811  0.22043377  0.00237266    -0.15820
F494        F  0.40987681  0.17200864  0.04216092    -0.13460
C495        C  0.22724724  0.46428100  0.42603543     0.24550
C496        C  0.25004432  0.45010425  0.45268330    -0.23560
C497        C  0.25046007  0.41323258  0.45820987     0.19460
C498        C  0.22722071  0.39131604  0.43881680     0.24490
C499        C  0.20423049  0.40554934  0.41213091    -0.23500
C500        C  0.20505516  0.44235923  0.40567877     0.19390
F501        F  0.18543089  0.45725911  0.37858701    -0.13460
F502        F  0.22636547  0.49965178  0.41969018    -0.15820
F503        F  0.22722474  0.35614042  0.44626276    -0.15820
F504        F  0.27381912  0.39829827  0.48191316    -0.13460
C505        C  0.35686165  0.43382189  0.05761362     0.24550
C506        C  0.34333127  0.40545314  0.07897305    -0.23560
C507        C  0.30608453  0.39994237  0.07887751     0.19460
C508        C  0.28383985  0.42083279  0.05718860     0.24490
C509        C  0.29718584  0.45082889  0.03900413    -0.23500
C510        C  0.33388704  0.45726641  0.03951410     0.19390
F511        F  0.34764596  0.48475586  0.02016409    -0.13460
F512        F  0.39232618  0.43839848  0.05300454    -0.15820
F513        F  0.24877878  0.41260412  0.05490194    -0.15820
F514        F  0.29041881  0.37549595  0.10079174    -0.13460
C515        C  0.44620598  0.27157861  0.43504986     0.24550
C516        C  0.46278277  0.29245210  0.40794835    -0.23560
C517        C  0.50018674  0.29380591  0.40687514     0.19460
C518        C  0.52032914  0.27452280  0.43188533     0.24490
C519        C  0.50376842  0.25238668  0.45763242    -0.23500
C520        C  0.46650710  0.25101722  0.45899565     0.19390
F521        F  0.44974566  0.22830216  0.48204756    -0.13460
F522        F  0.41029225  0.27053926  0.43806583    -0.15820
F523        F  0.05630415  0.27636741  0.43003461    -0.15820
F524        F  0.51753654  0.31211107  0.38034069    -0.13460
C525        C  0.44139311  0.81105867  0.37964046     0.04080
C526        C  0.41215475  0.79429157  0.36339672    -0.12070
C527        C  0.39277991  0.81112590  0.33564856     0.01580
C528        C  0.40400368  0.84414920  0.32258427    -0.10590
C529        C  0.43355162  0.86090833  0.33791415     0.04080
C530        C  0.45124098  0.84485731  0.36728548    -0.10010
H531        H  0.40495549  0.76779995  0.37179357     0.09670
H532        H  0.38966874  0.85672233  0.30046711     0.07200
H533        H  0.47322566  0.85843075  0.38006661     0.07050
C534        C  0.36738992  0.88351888  0.10296669     0.04080
C535        C  0.39729365  0.89915088  0.11956178    -0.12070
C536        C  0.41662924  0.88127129  0.14657309     0.01580
C537        C  0.40477289  0.84843214  0.15918099    -0.10590
C538        C  0.37514781  0.83223714  0.14336910     0.04080
C539        C  0.35825136  0.84863068  0.11357880    -0.10010
H540        H  0.40399902  0.92646956  0.11419938     0.09670
H541        H  0.41698642  0.83668879  0.18314843     0.07200
H542        H  0.33595279  0.83529303  0.10124739     0.07050
C543        C  0.18171279  0.88220592  0.38883686     0.04080
C544        C  0.19649705  0.85181887  0.37290860    -0.12070
C545        C  0.17874419  0.83413155  0.34478831     0.01580
C546        C  0.14619116  0.84729284  0.33204590    -0.10590
C547        C  0.13031456  0.87669827  0.34850172     0.04080
C548        C  0.14751582  0.89311561  0.37779612    -0.10010
H549        H  0.22329493  0.84380063  0.37980179     0.09670
H550        H  0.13423322  0.83593504  0.30792257     0.07200
H551        H  0.13585818  0.91664667  0.38939067     0.07050
C552        C  0.43825973  0.64187588  0.10826339     0.04080
C553        C  0.40623695  0.65454503  0.12187469    -0.12070
C554        C  0.38873819  0.63710896  0.15052208     0.01580
C555        C  0.40362187  0.60619641  0.16550902    -0.10590
C556        C  0.43576240  0.59282334  0.15175088     0.04080
C557        C  0.45258952  0.61063003  0.12278101    -0.10010
H558        H  0.39618440  0.67927242  0.11122240     0.09670
H559        H  0.39054729  0.59295032  0.18808655     0.07200
H560        H  0.47764266  0.60116860  0.11224888     0.07050
C561        C  0.44700513  0.89434672  0.32247631     0.43410
N562        N  0.98146972  0.93814504  0.31191737     0.02300
C563        C  0.48479329  0.54329968  0.15613233    -0.05570
H564        H  0.99087957  0.91088955  0.12938167     0.07790
C565        C  0.10917238  0.90893501  0.20799492    -0.05930
Co566      Co  0.45974483  0.97854513  0.24483623     0.74180
N567        N  0.98555388  0.94012150  0.17951063    -0.25100
Co568      Co  0.02707443  0.97686949  0.18070373     0.74070
C569        C  0.09592877  0.89060542  0.17588350     0.43510
N570        N  0.08584049  0.93723083  0.29134048     0.01920
N571        N  0.06459388  0.93687803  0.18458914     0.02020
N572        N  0.44076063  0.54383748  0.19820622    -0.46190
H573        H  0.41278983  0.90713784  0.27184646     0.07780
N574        N  0.46062200  0.94047538  0.20472203     0.02310
N575        N  0.06863338  0.51388143  0.18228096     0.02050
C576        C  0.10798757  0.55273363  0.16781771     0.43650
N577        N  0.06124916  0.93739450  0.31690833    -0.24560
C578        C  0.43537345  0.54131636  0.29086120    -0.05480
N579        N  0.97601855  0.91148646  0.33472604    -0.45670
N580        N  0.07851017  0.53596093  0.15580663    -0.45890
C581        C  0.44365365  0.55535164  0.32661011     0.43430
N582        N  0.46327667  0.51750389  0.20413241     0.02300
N583        N  0.06059307  0.51387988  0.31628315    -0.24580
N584        N  0.45791256  0.93948526  0.28527485    -0.25070
N585        N  0.08632932  0.51435794  0.29183726     0.01940
H586        H  0.04850557  0.54599450  0.36270009     0.07830
H587        H  0.13972026  0.54203357  0.22024256     0.07860
N588        N  0.98911883  0.51663346  0.17982392    -0.25120
N589        N  0.08810497  0.93708576  0.21126855    -0.24740
N590        N  0.98127681  0.51477058  0.31347102     0.02300
C591        C  0.44335734  0.90056701  0.16763877     0.43700
C592        C  0.06996982  0.91270980  0.34207670    -0.05990
N593        N  0.09091867  0.51399937  0.21005305    -0.24730
H594        H  0.13075918  0.90220738  0.22616324     0.07850
N595        N  0.43479502  0.91769560  0.19839746    -0.45960
H596        H  0.05613562  0.90792972  0.36747212     0.07830
C597        C  0.09784738  0.55764657  0.32727218     0.43530
C598        C  0.43493082  0.91279974  0.28963375    -0.05480
Co599      Co  0.02107326  0.97595422  0.31551349     0.73820
N600        N  0.11089083  0.91348850  0.29728946    -0.45670
C601        C  0.45266326  0.56131214  0.16833418     0.43800
N602        N  0.47187945  0.53701318  0.33963163    -0.45660
Co603      Co  0.08841383  0.97589267  0.25114923     0.73890
C604        C  0.11639759  0.53792792  0.20357537    -0.05990
C605        C  0.47667404  0.91594739  0.15442324    -0.05550
N606        N  0.45949570  0.51616959  0.28532985    -0.25080
N607        N  0.06839906  0.90956049  0.16257934    -0.45840
H608        H  0.00167008  0.54861176  0.13289886     0.07810
C609        C  0.06551809  0.54020141  0.33978665    -0.05970
Cl610      Cl  0.02408642  0.97693376  0.24805263    -0.48970
C611        C  0.10264640  0.89624092  0.32832561     0.43560
H612        H  0.41253513  0.54645347  0.27373504     0.07770
N613        N  0.10926189  0.54030563  0.29736558    -0.45680
C614        C  0.11167553  0.81604532  0.10871754     0.04080
C615        C  0.09440438  0.84212047  0.12991208    -0.12070
C616        C  0.11217903  0.86000635  0.15775628     0.01580
C617        C  0.14576730  0.84870953  0.16840328    -0.10590
C618        C  0.16258922  0.82115961  0.15034764     0.04080
C619        C  0.14684419  0.80698444  0.11898245    -0.10010
H620        H  0.06684258  0.84846497  0.12618283     0.09670
H621        H  0.15878546  0.86130309  0.19103903     0.07200
H622        H  0.16268639  0.78883344  0.10336459     0.07050
C623        C  0.36574766  0.56740465  0.38890345     0.04080
C624        C  0.39984118  0.55663483  0.37739905    -0.12070
C625        C  0.41695577  0.57409770  0.34840685     0.01580
C626        C  0.40142268  0.60428226  0.33302258    -0.10590
C627        C  0.36873520  0.61669698  0.34554005     0.04080
C628        C  0.35090874  0.59820721  0.37331023    -0.10010
H629        H  0.41145262  0.53263147  0.38832877     0.09670
H630        H  0.41336394  0.61640583  0.30909798     0.07200
H631        H  0.32395954  0.60580469  0.37993046     0.07050
C632        C  0.10979000  0.64147983  0.38158915     0.04080
C633        C  0.09780281  0.60801359  0.37083014    -0.12070
C634        C  0.11362590  0.59039864  0.34155719     0.01580
C635        C  0.14342607  0.60525047  0.32466403    -0.10590
C636        C  0.15685329  0.63789817  0.33609054     0.04080
C637        C  0.13969925  0.65612104  0.36427342    -0.10010
H638        H  0.07529718  0.59630123  0.38466766     0.09670
H639        H  0.15591348  0.59138954  0.30240317     0.07200
H640        H  0.14884265  0.68220622  0.37176104     0.07050
C641        C  0.18142212  0.57163196  0.10009141     0.04080
C642        C  0.15050695  0.55662101  0.11560454    -0.12070
C643        C  0.13331482  0.57294242  0.14499192     0.01580
C644        C  0.14633676  0.60519579  0.15783584    -0.10590
C645        C  0.17581613  0.62149022  0.14142373     0.04080
C646        C  0.19295667  0.60489033  0.11216249    -0.10010
H647        H  0.14229355  0.53035485  0.10756695     0.09670
H648        H  0.13505564  0.61642454  0.18236020     0.07200
H649        H  0.21787732  0.61554084  0.10217547     0.07050
C650        C  0.34941072  0.64247860  0.32298092     0.43410
N651        N  0.31045220  0.68158283  0.30903045     0.02300
C652        C  0.21155096  0.68137531  0.14856541    -0.05570
H653        H  0.34476917  0.70210014  0.12977738     0.07790
C654        C  0.34111599  0.81376952  0.20062692    -0.05930
Co655      Co  0.27272192  0.66228559  0.24051558     0.74180
N656        N  0.31201770  0.68980475  0.17580710    -0.25100
Co657      Co  0.27451259  0.72951348  0.17569965     0.74070
C658        C  0.35593371  0.80548666  0.16512552     0.43510
N659        N  0.31528666  0.78577840  0.28653865     0.01920
N660        N  0.31412467  0.76862473  0.17782339     0.02020
N661        N  0.21088192  0.64053932  0.19363482    -0.45950
H662        H  0.33864037  0.61120542  0.27078230     0.07780
N663        N  0.31195765  0.66404825  0.20025082     0.02310
N664        N  0.23705590  0.76952516  0.17825656     0.02050
C665        C  0.19554312  0.80624422  0.16583759     0.43650
N666        N  0.31418999  0.76008490  0.31101450    -0.24560
C667        C  0.20590341  0.64065264  0.28510829    -0.05480
N668        N  0.33264900  0.67163404  0.33529700    -0.45670
N669        N  0.21162920  0.77648627  0.15429926    -0.45890
C670        C  0.18816901  0.65326438  0.31791428     0.43430
N671        N  0.23448097  0.66549725  0.20008927     0.02300
N672        N  0.23708521  0.76475407  0.31152141    -0.24580
N673        N  0.31052331  0.65957140  0.28133885    -0.25070
N674        N  0.23775299  0.78955783  0.28608669     0.01940
H675        H  0.20775237  0.75984072  0.36198766     0.07830
H676        H  0.20846873  0.83933788  0.21692346     0.07860
N677        N  0.23546128  0.68999829  0.17434567    -0.25120
N678        N  0.31528960  0.79015636  0.20587923    -0.24740
N679        N  0.23340175  0.68582550  0.30713388     0.02300
C680        C  0.35612317  0.65282740  0.16550711     0.43700
C681        C  0.34199929  0.76324834  0.33349996    -0.05990
N682        N  0.23843140  0.79269807  0.20494207    -0.24730
H683        H  0.34630572  0.83632797  0.21776092     0.07850
N684        N  0.33812222  0.64117972  0.19514291    -0.45960
H685        H  0.34782733  0.74603338  0.35637141     0.07830
C686        C  0.19784632  0.80728925  0.32354249     0.43530
C687        C  0.33452715  0.63426229  0.28749826    -0.05480
Co688      Co  0.27368039  0.72303730  0.31055292     0.73820
N689        N  0.34278590  0.80703525  0.29108934    -0.45670
C690        C  0.19472724  0.64882178  0.16202840     0.43800
N691        N  0.20672064  0.68127758  0.33017915    -0.45660
Co692      Co  0.27670315  0.79008996  0.24597030     0.73890
C693        C  0.21320511  0.81690894  0.19952082    -0.05990
C694        C  0.33876717  0.68500431  0.15267427    -0.05550
N695        N  0.23352440  0.66244049  0.28061357    -0.25080
N696        N  0.33720783  0.77775044  0.15196622    -0.45840
H697        H  0.20779308  0.69501783  0.12285106     0.07810
C698        C  0.21291985  0.77389590  0.33676528    -0.05970
Cl699      Cl  0.27428617  0.72623155  0.24315553    -0.48970
C700        C  0.36095026  0.79437640  0.32008346     0.43560
H701        H  0.19942092  0.61873085  0.26760059     0.07770
N702        N  0.21518882  0.81555409  0.29250263    -0.45680
C703        C  0.27298328  0.97450300  0.51150831     0.01520
C704        C  0.27335572  0.97446842  0.47410663     0.01520
C705        C  0.02295983  0.73030752  0.97549925     0.01520
C706        C  0.02255254  0.73262438  0.01295343     0.01520
C707        C  0.02601670  0.72748950  0.47937921     0.01520
C708        C  0.02508096  0.72650406  0.51671630     0.01520
C709        C  0.27299450  0.97435708  0.01810398     0.01520
C710        C  0.26795979  0.96935640  0.98069741     0.01520
C711        C  0.35212788  0.89270093  0.87393223     0.04080
C712        C  0.38437313  0.90770166  0.86251482    -0.12070
C713        C  0.40465837  0.89119090  0.83531370     0.01580
C714        C  0.39253004  0.85946323  0.82018500    -0.10590
C715        C  0.36063614  0.84417752  0.83193045     0.04080
C716        C  0.34054857  0.86095245  0.85880430    -0.10010
H717        H  0.39310931  0.93232676  0.87437153     0.09670
H718        H  0.40811395  0.84654862  0.79939190     0.07200
H719        H  0.31565042  0.84953703  0.86792786     0.07050
C720        C  0.43397840  0.63625440  0.88878351     0.04080
C721        C  0.40063348  0.64777593  0.87559383    -0.12070
C722        C  0.38419143  0.63061336  0.84629315     0.01580
C723        C  0.39943547  0.59994802  0.83227300    -0.10590
C724        C  0.43117655  0.58655496  0.84653876     0.04080
C725        C  0.44851140  0.60480530  0.87466070    -0.10010
H726        H  0.38916967  0.67208592  0.88557377     0.09670
H727        H  0.38798482  0.58797341  0.80818827     0.07200
H728        H  0.47492892  0.59653390  0.88268075     0.07050
C729        C  0.18920029  0.55961686  0.88157229     0.04080
C730        C  0.15935846  0.54509449  0.86407266    -0.12070
C731        C  0.14275154  0.56313897  0.83508464     0.01580
C732        C  0.15693961  0.59529766  0.82277053    -0.10590
C733        C  0.18676450  0.60999180  0.83964354     0.04080
C734        C  0.20188278  0.59271415  0.86979802    -0.10010
H735        H  0.14965652  0.51930126  0.87223740     0.09670
H736        H  0.14491869  0.60895890  0.79989265     0.07200
H737        H  0.22416869  0.60459072  0.88369439     0.07050
C738        C  0.11780828  0.81804623  0.88704877     0.04080
C739        C  0.10350267  0.84900955  0.87119357    -0.12070
C740        C  0.12155942  0.86740231  0.84361818     0.01580
C741        C  0.15322752  0.85354913  0.82977850    -0.10590
C742        C  0.16831621  0.82313341  0.84531431     0.04080
C743        C  0.15161895  0.80673167  0.87521892    -0.10010
H744        H  0.07674799  0.85730952  0.87753990     0.09670
H745        H  0.16503825  0.86525191  0.80558632     0.07200
H746        H  0.16371525  0.78337855  0.88696659     0.07050
C747        C  0.11748171  0.63321155  0.60135503     0.04080
C748        C  0.15042517  0.64514503  0.61492617    -0.12070
C749        C  0.16718114  0.62737246  0.64392051     0.01580
C750        C  0.15256828  0.59583096  0.65727027    -0.10590
C751        C  0.12142802  0.58200945  0.64213976     0.04080
C752        C  0.10386046  0.60084861  0.61446744    -0.10010
H753        H  0.16129220  0.67008068  0.60550717     0.09670
H754        H  0.16401920  0.58336561  0.68125400     0.07200
H755        H  0.07767299  0.59216581  0.60621008     0.07050
C756        C  0.35682693  0.56003798  0.60971755     0.04080
C757        C  0.38691306  0.54486268  0.62590231    -0.12070
C758        C  0.40575772  0.56260153  0.65332614     0.01580
C759        C  0.39303519  0.59509943  0.66608462    -0.10590
C760        C  0.36256019  0.61034415  0.65054426     0.04080
C761        C  0.34561342  0.59330800  0.62146985    -0.10010
H762        H  0.39504187  0.51874672  0.61765905     0.09670
H763        H  0.40669126  0.60838081  0.68808187     0.07200
H764        H  0.32298475  0.60543471  0.60830845     0.07050
C765        C  0.34792111  0.81095097  0.81610495     0.43410
N766        N  0.31605234  0.76522480  0.80686361     0.02300
C767        C  0.31481588  0.66061760  0.65300416    -0.05570
H768        H  0.30538582  0.79171172  0.62305329     0.07790
C769        C  0.18523844  0.78876163  0.70138039    -0.05930
Co770      Co  0.33894691  0.72591984  0.74033778     0.74180
N771        N  0.31129486  0.76347783  0.67423545    -0.25100
Co772      Co  0.27109626  0.72524680  0.67661374     0.74070
C773        C  0.19678422  0.80625463  0.66778297     0.43510
N774        N  0.21198404  0.76326695  0.78729216     0.01920
N775        N  0.23181931  0.76332231  0.67954805     0.02020
N776        N  0.35915922  0.66074498  0.69479757    -0.45950
H777        H  0.38261719  0.79980865  0.76563269     0.07780
N778        N  0.33623209  0.76409753  0.69946859     0.02310
N779        N  0.23117288  0.68669252  0.67953590     0.02050
C780        C  0.19336846  0.64614382  0.66647950     0.43650
N781        N  0.23692951  0.76336002  0.81252506    -0.24560
C782        C  0.36605776  0.66394089  0.78785044    -0.05480
N783        N  0.32006312  0.79231604  0.82898330    -0.45670
N784        N  0.22191425  0.66408482  0.65368835    -0.45890
C785        C  0.35785313  0.64944762  0.82372879     0.43430
N786        N  0.33641110  0.68689881  0.70026941     0.02300
N787        N  0.23955115  0.68688742  0.81297223    -0.24580
N788        N  0.33949591  0.76498898  0.78011012    -0.25070
N789        N  0.21362003  0.68614427  0.78877446     0.01940
H790        H  0.25225277  0.65464216  0.85975000     0.07830
H791        H  0.16167185  0.65613252  0.71885594     0.07860
N792        N  0.31035820  0.68718480  0.67619872    -0.25120
N793        N  0.20850653  0.76257395  0.70641183    -0.24740
N794        N  0.31891211  0.68861862  0.80956566     0.02300
C795        C  0.35251215  0.80406771  0.66110610     0.43700
C796        C  0.22834999  0.78764699  0.83767126    -0.05990
N797        N  0.20913076  0.68595926  0.70748563    -0.24730
H798        H  0.16308035  0.79446337  0.71910642     0.07850
N799        N  0.36129330  0.78760954  0.69249803    -0.45960
H800        H  0.24263446  0.79248833  0.86272555     0.07830
C801        C  0.20287731  0.64250869  0.82464645     0.43530
C802        C  0.36100619  0.79291822  0.78373088    -0.05480
Co803      Co  0.27796704  0.72602899  0.81128414     0.73820
N804        N  0.18655892  0.78648577  0.79363456    -0.45670
C805        C  0.34720803  0.64312071  0.66527187     0.43800
N806        N  0.32880378  0.66663220  0.83608673    -0.45660
Co807      Co  0.21022342  0.72440300  0.74756166     0.73890
C808        C  0.18472238  0.66091332  0.70193015    -0.05990
C809        C  0.31961993  0.78750702  0.64832241    -0.05550
N810        N  0.34096822  0.68817558  0.78162241    -0.25080
N811        N  0.22590093  0.78915848  0.65582573    -0.45840
H812        H  0.29744568  0.65480425  0.63037144     0.07810
C813        C  0.23513409  0.66030411  0.83678157    -0.05970
Cl814      Cl  0.27455355  0.72535175  0.74394831    -0.48970
C815        C  0.19523321  0.80355628  0.82449600     0.43560
H816        H  0.38918059  0.65955512  0.77099312     0.07770
N817        N  0.19107754  0.65990787  0.79472238    -0.45680
C818        C  0.43107281  0.81841427  0.60019377     0.04080
C819        C  0.39662664  0.80766600  0.61085235    -0.12070
C820        C  0.37936912  0.82392671  0.64019886     0.01580
C821        C  0.39464011  0.85371853  0.65625288    -0.10590
C822        C  0.42714983  0.86705328  0.64380984     0.04080
C823        C  0.44557622  0.84897905  0.61637787    -0.10010
H824        H  0.38460693  0.78448836  0.59893269     0.09670
H825        H  0.38240883  0.86507247  0.68023133     0.07200
H826        H  0.47261192  0.85685373  0.61048880     0.07050
C827        C  0.18772658  0.88887043  0.60969031     0.04080
C828        C  0.15705987  0.90382762  0.62521579    -0.12070
C829        C  0.13853469  0.88592456  0.65295657     0.01580
C830        C  0.15124036  0.85344620  0.66570836    -0.10590
C831        C  0.18198181  0.83855672  0.65121216     0.04080
C832        C  0.19937192  0.85565177  0.62231937    -0.10010
H833        H  0.14829043  0.92983319  0.61667813     0.09670
H834        H  0.13726108  0.83974329  0.68725893     0.07200
H835        H  0.22260613  0.84352900  0.61035774     0.07050
C836        C  0.45042012  0.56030101  0.82480550     0.43410
N837        N  0.48814765  0.52024167  0.81066218     0.02300
C838        C  0.08532788  0.52233438  0.64920422    -0.05570
H839        H  0.45001098  0.49798579  0.63301989     0.07790
C840        C  0.46010298  0.88572788  0.70188054    -0.05930
Co841      Co  0.02460085  0.53983640  0.74123772     0.74180
N842        N  0.48443252  0.51159426  0.67737779    -0.25100
Co843      Co  0.02323191  0.97308037  0.67704108     0.74070
C844        C  0.44567471  0.89356000  0.66602896     0.43510
N845        N  0.48407927  0.91570869  0.78850957     0.01920
N846        N  0.48489366  0.93268742  0.67942186     0.02020
N847        N  0.08570801  0.56277766  0.69404378    -0.45950
H848        H  0.46022898  0.59089947  0.77161701     0.07780
N849        N  0.48448039  0.53732087  0.70150493     0.02310
N850        N  0.06207392  0.93453966  0.68010284     0.02050
C851        C  0.10666253  0.90125708  0.66985090     0.43650
N852        N  0.48494011  0.94123246  0.81285181    -0.24560
C853        C  0.09257983  0.56133676  0.78478463    -0.05480
N854        N  0.46697245  0.53089557  0.83741687    -0.45670
N855        N  0.08881052  0.92970726  0.65723361    -0.45890
C856        C  0.11094185  0.54827343  0.81735390     0.43430
N857        N  0.06218692  0.53766942  0.70049162     0.02300
N858        N  0.06227097  0.93730854  0.81271385    -0.24580
N859        N  0.48755991  0.54207522  0.78249075    -0.25070
N860        N  0.06160543  0.91307138  0.78713948     0.01940
H861        H  0.09281955  0.94153146  0.86245899     0.07830
H862        H  0.09461464  0.86692178  0.72070078     0.07860
N863        N  0.06133059  0.51343414  0.67491083    -0.25120
N864        N  0.48431407  0.91087766  0.70758818    -0.24740
N865        N  0.06514828  0.51622273  0.80765402     0.02300
C866        C  0.43837068  0.54670569  0.66853174     0.43700
C867        C  0.45693083  0.93784386  0.83516116    -0.05990
N868        N  0.06134517  0.91106418  0.70689524    -0.24730
H869        H  0.45606128  0.86261025  0.71888202     0.07850
N870        N  0.45724380  0.55914432  0.69710902    -0.45960
H871        H  0.45065077  0.95509229  0.85761209     0.07830
C872        C  0.10272221  0.89517176  0.82319606     0.43530
C873        C  0.46419971  0.56780185  0.78866824    -0.05480
Co874      Co  0.02516023  0.97873790  0.81195021     0.73820
N875        N  0.45648022  0.89450739  0.79294195    -0.45670
C876        C  0.10202364  0.55475755  0.66263299     0.43800
N877        N  0.09233045  0.52034763  0.83010633    -0.45660
Co878      Co  0.02270534  0.91213458  0.74767335     0.73890
C879        C  0.08848124  0.88879762  0.70269589    -0.05990
C880        C  0.45647460  0.51529248  0.65536758    -0.05550
N881        N  0.06462977  0.53980225  0.78092577    -0.25080
N882        N  0.46290910  0.92251247  0.65314949    -0.45840
H883        H  0.08952075  0.50871239  0.62375477     0.07810
C884        C  0.08719546  0.92793878  0.83727997    -0.05970
Cl885      Cl  0.02385485  0.97596134  0.74448422    -0.48970
C886        C  0.43812413  0.90678233  0.82183412     0.43560
H887        H  0.09901301  0.58328603  0.76696513     0.07770
N888        N  0.08481575  0.88744933  0.79260727    -0.45680
C889        C  0.19098281  0.51947318  0.93717320     0.24550
C890        C  0.20894206  0.53921869  0.91001863    -0.23560
C891        C  0.24636071  0.53812133  0.90910006     0.19460
C892        C  0.26516935  0.51765906  0.93418846     0.24490
C893        C  0.24719007  0.49639735  0.95987064    -0.23500
C894        C  0.20994524  0.49776973  0.96149662     0.19390
F895        F  0.19201513  0.97717872  0.98575179    -0.13460
F896        F  0.15507110  0.52079527  0.93992397    -0.15820
F897        F  0.30118271  0.51683096  0.93212800    -0.15820
F898        F  0.26493667  0.55498515  0.88242606    -0.13460
C899        C  0.31423139  0.91828255  0.96499535     0.24550
C900        C  0.28560520  0.94125136  0.95554964    -0.23560
C901        C  0.27538205  0.93973346  0.91800081     0.19460
C902        C  0.29778799  0.92550851  0.89153984     0.24490
C903        C  0.32990083  0.90992269  0.90156937    -0.23500
C904        C  0.33721426  0.90500911  0.93846671     0.19390
F905        F  0.36466023  0.88394175  0.94886615    -0.13460
F906        F  0.31548965  0.90052333  0.99679399    -0.15820
F907        F  0.28781370  0.92654823  0.85595438    -0.15820
F908        F  0.24312660  0.95115950  0.90635986    -0.13460
C909        C  0.06951532  0.71541321  0.56642191     0.24550
C910        C  0.04811439  0.70183861  0.53843915    -0.23560
C911        C  0.04912443  0.66526012  0.53165357     0.19460
C912        C  0.07291061  0.64332927  0.55057502     0.24490
C913        C  0.09459078  0.65696624  0.57852408    -0.23500
C914        C  0.09187775  0.69327478  0.58664764     0.19390
F915        F  0.10979497  0.70741232  0.61516328    -0.13460
F916        F  0.06888610  0.75040026  0.57426312    -0.15820
F917        F  0.07471976  0.60871452  0.54136933    -0.15820
F918        F  0.02667714  0.65053223  0.50711921    -0.13460
C919        C  0.50326566  0.78750140  0.53416607     0.24550
C920        C  0.50098229  0.75053440  0.53756545    -0.23560
C921        C  0.47524635  0.73600128  0.56087807     0.19460
C922        C  0.45242441  0.75777570  0.58071669     0.24490
C923        C  0.45391407  0.79501536  0.57691640    -0.23500
C924        C  0.47949469  0.80942804  0.55281902     0.19390
F925        F  0.48153653  0.84480953  0.54697640    -0.13460
F926        F  0.02892242  0.80245443  0.51312649    -0.15820
F927        F  0.42995713  0.74201530  0.60475935    -0.15820
F928        F  0.47200024  0.70040052  0.56426471    -0.13460
C929        C  0.06960535  0.81090199  0.93483952     0.24550
C930        C  0.09528127  0.79546106  0.91181773    -0.23560
C931        C  0.09650650  0.75807845  0.91018174     0.19460
C932        C  0.07378075  0.73727885  0.93163876     0.24490
C933        C  0.04772669  0.75296576  0.95347514    -0.23500
C934        C  0.04492650  0.78995160  0.95348385     0.19390
F935        F  0.01725255  0.80595168  0.97015653    -0.13460
F936        F  0.06796402  0.84640822  0.93940905    -0.15820
F937        F  0.07666298  0.70156326  0.93037499    -0.15820
F938        F  0.11832819  0.74121582  0.88660078    -0.13460
C939        C  0.45774167  0.69654205  0.90474018     0.24550
C940        C  0.45604582  0.65995868  0.91232286    -0.23560
C941        C  0.47733147  0.64638039  0.94086130     0.19460
C942        C  0.49956047  0.66875638  0.96110501     0.24490
C943        C  0.49998412  0.70542736  0.95425796    -0.23500
C944        C  0.47893359  0.71888531  0.92570292     0.19390
F945        F  0.47869784  0.75403317  0.91806791    -0.13460
F946        F  0.43997264  0.71082579  0.87598847    -0.15820
F947        F  0.52095150  0.65450613  0.98711021    -0.15820
F948        F  0.47656097  0.61143869  0.94935966    -0.13460
C949        C  0.27838679  0.51968829  0.56037181     0.24550
C950        C  0.29507801  0.49916263  0.53359244    -0.23560
C951        C  0.33234459  0.49963126  0.53107272     0.19460
C952        C  0.35241101  0.52064790  0.55462883     0.24490
C953        C  0.33569651  0.54020605  0.58234594    -0.23500
C954        C  0.29837864  0.53938365  0.58486476     0.19390
F955        F  0.28108898  0.55620764  0.61219291    -0.13460
F956        F  0.24245804  0.01987031  0.56349450    -0.15820
F957        F  0.38821820  0.52158001  0.55047386    -0.15820
F958        F  0.34942310  0.47864360  0.50691180    -0.13460
C959        C  0.24646599  0.90989153  0.58562386     0.24550
C960        C  0.20918744  0.90893854  0.58247457    -0.23560
C961        C  0.19287292  0.92842696  0.55414963     0.19460
C962        C  0.21329327  0.94935519  0.53048330     0.24490
C963        C  0.25052827  0.94983965  0.53357764    -0.23500
C964        C  0.26680949  0.92945713  0.56104760     0.19390
F965        F  0.30268941  0.92932822  0.56480721    -0.13460
F966        F  0.26338341  0.89333946  0.61363434    -0.15820
F967        F  0.19657202  0.97024495  0.50564362    -0.15820
F968        F  0.15712843  0.92748956  0.54947612    -0.13460
C969        C  0.21768407  0.51717070  0.09496601     0.24550
C970        C  0.20619919  0.54880683  0.07905968    -0.23560
C971        C  0.22203918  0.55959043  0.04614487     0.19460
C972        C  0.24642342  0.53742493  0.02816968     0.24490
C973        C  0.25311392  0.50240152  0.04077185    -0.23500
C974        C  0.24092606  0.49477288  0.07676460     0.19390
F975        F  0.25251198  0.96693720  0.09660200    -0.13460
F976        F  0.20770275  0.50849991  0.12950922    -0.15820
F977        F  0.26552874  0.55169326  0.00047750    -0.15820
F978        F  0.21442272  0.59180393  0.03166283    -0.13460
C979        C  0.10569864  0.68173465  0.43616334     0.24550
C980        C  0.08896202  0.66216972  0.40845079    -0.23560
C981        C  0.05169440  0.66335092  0.40558706     0.19460
C982        C  0.03169590  0.68308189  0.42994207     0.24490
C983        C  0.04830935  0.70326926  0.45706306    -0.23500
C984        C  0.08556551  0.70261652  0.45986804     0.19390
F985        F  0.10250171  0.72303598  0.48467326    -0.13460
F986        F  0.14150554  0.68074435  0.44027900    -0.15820
F987        F  0.99578713  0.68295334  0.42655016    -0.15820
F988        F  0.03444879  0.64662270  0.37813730    -0.13460
C989        C  0.32009365  0.55773003  0.43870183     0.24550
C990        C  0.34324385  0.54371660  0.41225337    -0.23560
C991        C  0.34241485  0.50694081  0.40606847     0.19460
C992        C  0.32002659  0.48488626  0.42642425     0.24490
C993        C  0.29696615  0.49890365  0.45271165    -0.23500
C994        C  0.29655766  0.53573446  0.45791277     0.19390
F995        F  0.27289290  0.55058974  0.48110301    -0.13460
F996        F  0.32016203  0.59281456  0.44606595    -0.15820
F997        F  0.32092395  0.94956047  0.42035767    -0.15820
F998        F  0.36215602  0.49220128  0.37921618    -0.13460
C999        C  0.03648068  0.78960166  0.04448459     0.24550
C1000       C  0.04786527  0.75690794  0.03149928    -0.23560
C1001       C  0.08264195  0.74597322  0.03877611     0.19460
C1002       C  0.10326473  0.76409488  0.06427076     0.24490
C1003       C  0.09203947  0.79729884  0.07823457    -0.23500
C1004       C  0.05963584  0.81104486  0.06417789     0.19390
F1005       F  0.04994578  0.84522244  0.06867462    -0.13460
F1006       F  0.00284111  0.80093345  0.03806513    -0.15820
F1007       F  0.13241986  0.74693978  0.07669950    -0.15820
F1008       F  0.09440731  0.71458288  0.02574693    -0.13460
C1009       C  0.49382908  0.67335562  0.09248874     0.24550
C1010       C  0.45913401  0.66424760  0.08293130    -0.23560
C1011       C  0.44387807  0.67964266  0.05161447     0.19460
C1012       C  0.46349075  0.70328859  0.02994038     0.24490
C1013       C  0.49966788  0.70996458  0.03758520    -0.23500
C1014       C  0.51393501  0.69531908  0.07015461     0.19390
F1015       F  0.04737305  0.70204874  0.08153486    -0.13460
F1016       F  0.50811105  0.66199089  0.12452682    -0.15820
F1017       F  0.44658124  0.72043325  0.00236923    -0.15820
F1018       F  0.40988061  0.67201968  0.04216444    -0.13460
C1019       C  0.22725098  0.96428167  0.42601909     0.24550
C1020       C  0.25004820  0.95010623  0.45266751    -0.23560
C1021       C  0.25046341  0.91323490  0.45819675     0.19460
C1022       C  0.22722287  0.89131755  0.43880635     0.24490
C1023       C  0.20423197  0.90554957  0.41212049    -0.23500
C1024       C  0.20505760  0.94235893  0.40566505     0.19390
F1025       F  0.18543268  0.95725719  0.37857284    -0.13460
F1026       F  0.22637000  0.99965202  0.41967111    -0.15820
F1027       F  0.22722621  0.85614245  0.44625505    -0.15820
F1028       F  0.27382288  0.89830174  0.48190036    -0.13460
C1029       C  0.35685732  0.93383026  0.05764859     0.24550
C1030       C  0.34333350  0.90544764  0.07899334    -0.23560
C1031       C  0.30608867  0.89992311  0.07888684     0.19460
C1032       C  0.28384171  0.92081044  0.05719784     0.24490
C1033       C  0.29717925  0.95081948  0.03903055    -0.23500
C1034       C  0.33387727  0.95727371  0.03955505     0.19390
F1035       F  0.34762968  0.98477502  0.02021814    -0.13460
F1036       F  0.39232065  0.93841956  0.05304324    -0.15820
F1037       F  0.24878719  0.91256023  0.05488797    -0.15820
F1038       F  0.29042583  0.87546401  0.10078802    -0.13460
C1039       C  0.44619213  0.77160130  0.43506737     0.24550
C1040       C  0.46276820  0.79245660  0.40795094    -0.23560
C1041       C  0.50017139  0.79378601  0.40685394     0.19460
C1042       C  0.52031517  0.77449821  0.43185797     0.24490
C1043       C  0.50375478  0.75238231  0.45762481    -0.23500
C1044       C  0.46649309  0.75103586  0.45900996     0.19390
F1045       F  0.44972986  0.72834480  0.48208592    -0.13460
F1046       F  0.41027913  0.77058545  0.43810132    -0.15820
F1047       F  0.05629014  0.77632226  0.42998544    -0.15820
F1048       F  0.51751663  0.81207350  0.38030329    -0.13460
C1049       C  0.94140889  0.31104995  0.37963155     0.04080
C1050       C  0.91217495  0.29427887  0.36338148    -0.12070
C1051       C  0.89279567  0.31111525  0.33563729     0.01580
C1052       C  0.90401475  0.34414123  0.32257745    -0.10590
C1053       C  0.93355924  0.36090291  0.33791013     0.04080
C1054       C  0.95124908  0.34485287  0.36728185    -0.10010
H1055       H  0.90498029  0.26778410  0.37177131     0.09670
H1056       H  0.88967769  0.35671541  0.30046240     0.07200
H1057       H  0.97322675  0.35843233  0.38006839     0.07050
C1058       C  0.86738394  0.38352644  0.10295174     0.04080
C1059       C  0.89728893  0.39915861  0.11954470    -0.12070
C1060       C  0.91662083  0.38128222  0.14656148     0.01580
C1061       C  0.90476228  0.34844491  0.15917240    -0.10590
C1062       C  0.87513693  0.33224932  0.14336166     0.04080
C1063       C  0.85824008  0.34864157  0.11357066    -0.10010
H1064       H  0.90399762  0.42647538  0.11417506     0.09670
H1065       H  0.91697511  0.33670305  0.18314100     0.07200
H1066       H  0.83593782  0.33530648  0.10124281     0.07050
C1067       C  0.68171327  0.38220674  0.38884391     0.04080
C1068       C  0.69649922  0.35182094  0.37291454    -0.12070
C1069       C  0.67874841  0.33413469  0.34479211     0.01580
C1070       C  0.64619569  0.34729606  0.33204859    -0.10590
C1071       C  0.63031714  0.37670009  0.34850538     0.04080
C1072       C  0.64751653  0.39311625  0.37780173    -0.10010
H1073       H  0.72329682  0.34380279  0.37980897     0.09670
H1074       H  0.63423916  0.33593903  0.30792414     0.07200
H1075       H  0.63585745  0.41664612  0.38939728     0.07050
C1076       C  0.93825612  0.14187389  0.10826242     0.04080
C1077       C  0.90623298  0.15454197  0.12187268    -0.12070
C1078       C  0.88873546  0.13710700  0.15052087     0.01580
C1079       C  0.90361985  0.10619501  0.16550865    -0.10590
C1080       C  0.93576091  0.09282245  0.15175074     0.04080
C1081       C  0.95258806  0.11062972  0.12278124    -0.10010
H1082       H  0.89617966  0.17926858  0.11121923     0.09670
H1083       H  0.89054566  0.09294923  0.18808659     0.07200
H1084       H  0.97764252  0.10117031  0.11225038     0.07050
C1085       C  0.94700782  0.39434418  0.32247527     0.43410
N1086       N  0.48146953  0.43814438  0.31191740     0.02300
C1087       C  0.98479196  0.04329874  0.15613113    -0.05570
H1088       H  0.49087242  0.41090127  0.12937271     0.07790
C1089       C  0.60916867  0.40893155  0.20799716    -0.05930
Co1090     Co  0.95974392  0.47854478  0.24483615     0.74180
N1091       N  0.48555142  0.44012377  0.17950821    -0.25100
Co1092     Co  0.52707403  0.47686935  0.18070439     0.74070
C1093       C  0.59592452  0.39060224  0.17588570     0.43510
N1094       N  0.58583963  0.43722967  0.29134249     0.01920
N1095       N  0.56459178  0.43687640  0.18459057     0.02020
N1096       N  0.94076021  0.04383664  0.19820591    -0.46190
H1097       H  0.91279242  0.40713368  0.27184473     0.07780
N1098       N  0.96061959  0.44047664  0.20471959     0.02310
N1099       N  0.56863177  0.01388372  0.18228018     0.02050
C1100       C  0.60798021  0.05274272  0.16781934     0.43650
N1101       N  0.56124870  0.43739392  0.31691066    -0.24560
C1102       C  0.93537798  0.04132038  0.29085836    -0.05480
N1103       N  0.47602002  0.41148517  0.33472546    -0.45670
N1104       N  0.57850508  0.03596657  0.15580748    -0.45890
C1105       C  0.94366046  0.05535761  0.32660589     0.43430
N1106       N  0.96327639  0.01750309  0.20413164     0.02300
N1107       N  0.56059499  0.01388061  0.31628213    -0.24580
N1108       N  0.95791261  0.43948388  0.28527439    -0.25070
N1109       N  0.58633074  0.01435886  0.29183575     0.01940
H1110       H  0.54850929  0.04599481  0.36269996     0.07830
H1111       H  0.63971504  0.04204296  0.22024306     0.07860
N1112       N  0.48911803  0.01663249  0.17982278    -0.25120
N1113       N  0.58810267  0.43708338  0.21127029    -0.24740
N1114       N  0.48127931  0.01477216  0.31346935     0.02300
C1115       C  0.94334903  0.40057806  0.16762776     0.43700
C1116       C  0.56997084  0.41271072  0.34208025    -0.05990
N1117       N  0.59091750  0.01400235  0.21005190    -0.24730
H1118       H  0.63075495  0.40220302  0.22616587     0.07850
N1119       N  0.93478923  0.41770172  0.19839027    -0.45960
H1120       H  0.55613745  0.40793164  0.36747634     0.07830
C1121       C  0.59785056  0.05764663  0.32727101     0.43530
C1122       C  0.93493255  0.41279691  0.28963268    -0.05480
Co1123     Co  0.52107198  0.47595343  0.31551460     0.73820
N1124       N  0.61089097  0.41348853  0.29729229    -0.45670
C1125       C  0.95266223  0.06131133  0.16833370     0.43800
N1126       N  0.97188475  0.03701753  0.33962824    -0.45660
Co1127     Co  0.58841282  0.47589082  0.25115092     0.73890
C1128       C  0.61639304  0.03793483  0.20357555    -0.05990
C1129       C  0.97666821  0.41595562  0.15441568    -0.05550
N1130       N  0.95949776  0.01617106  0.28532845    -0.25080
N1131       N  0.56839586  0.40955848  0.16258107    -0.45840
H1132       H  0.50166854  0.04861108  0.13289763     0.07810
C1133       C  0.56552110  0.04020179  0.33978594    -0.05970
Cl1134     Cl  0.52408547  0.47693300  0.24805346    -0.48970
C1135       C  0.60264796  0.39624219  0.32832952     0.43560
H1136       H  0.91254012  0.04645884  0.27373196     0.07770
N1137       N  0.60926398  0.04030596  0.29736396    -0.45680
C1138       C  0.61167049  0.31604248  0.10871893     0.04080
C1139       C  0.59439975  0.34211783  0.12991342    -0.12070
C1140       C  0.61217403  0.36000275  0.15775850     0.01580
C1141       C  0.64576189  0.34870525  0.16840591    -0.10590
C1142       C  0.66258367  0.32115508  0.15035081     0.04080
C1143       C  0.64683841  0.30697909  0.11898553    -0.10010
H1144       H  0.56683783  0.34846347  0.12618286     0.09670
H1145       H  0.65878007  0.36129893  0.19104161     0.07200
H1146       H  0.66267898  0.28882703  0.10336924     0.07050
C1147       C  0.86575425  0.06741011  0.38889642     0.04080
C1148       C  0.89984829  0.05664100  0.37739368    -0.12070
C1149       C  0.91696365  0.07410449  0.34840253     0.01580
C1150       C  0.90143109  0.10428926  0.33301822    -0.10590
C1151       C  0.86874305  0.11670324  0.34553475     0.04080
C1152       C  0.85091572  0.09821277  0.37330357    -0.10010
H1153       H  0.91145917  0.03263723  0.38832312     0.09670
H1154       H  0.91337287  0.11641311  0.30909404     0.07200
H1155       H  0.82396604  0.10580962  0.37992261     0.07050
C1156       C  0.60979714  0.14147802  0.38158949     0.04080
C1157       C  0.59780899  0.10801223  0.37083038    -0.12070
C1158       C  0.61363055  0.09039795  0.34155622     0.01580
C1159       C  0.64343042  0.10524999  0.32466230    -0.10590
C1160       C  0.65685836  0.13789729  0.33608958     0.04080
C1161       C  0.63970546  0.15611947  0.36427309    -0.10010
H1162       H  0.57530371  0.09629993  0.38466856     0.09670
H1163       H  0.65591688  0.09138971  0.30240044     0.07200
H1164       H  0.64884903  0.18220458  0.37176080     0.07050
C1165       C  0.68141825  0.07163381  0.10009752     0.04080
C1166       C  0.65049679  0.05662997  0.11560503    -0.12070
C1167       C  0.63330682  0.07295188  0.14499309     0.01580
C1168       C  0.64633226  0.10520341  0.15783808    -0.10590
C1169       C  0.67581440  0.12149426  0.14142735     0.04080
C1170       C  0.69295648  0.10489068  0.11216927    -0.10010
H1171       H  0.64227784  0.03036627  0.10756488     0.09670
H1172       H  0.63505165  0.11643318  0.18236218     0.07200
H1173       H  0.71788029  0.11553708  0.10218602     0.07050
C1174       C  0.84941843  0.14248441  0.32297584     0.43410
N1175       N  0.81045581  0.18158534  0.30902856     0.02300
C1176       C  0.71155011  0.18137841  0.14856777    -0.05570
H1177       H  0.84476869  0.20210039  0.12977572     0.07790
C1178       C  0.84111145  0.31377712  0.20062225    -0.05930
Co1179     Co  0.77272394  0.16228810  0.24051528     0.74180
N1180       N  0.81201829  0.18980709  0.17580660    -0.25100
Co1181     Co  0.77451286  0.22951602  0.17569960     0.74070
C1182       C  0.85592560  0.30549724  0.16511872     0.43510
N1183       N  0.81529187  0.28577889  0.28653707     0.01920
N1184       N  0.81412370  0.26862884  0.17782121     0.02020
N1185       N  0.71088238  0.14054220  0.19363700    -0.45950
H1186       H  0.83864687  0.11121048  0.27077790     0.07780
N1187       N  0.81195795  0.16405057  0.20025031     0.02310
N1188       N  0.73705549  0.26952657  0.17825784     0.02050
C1189       C  0.69553877  0.30624169  0.16584074     0.43650
N1190       N  0.81419534  0.26008513  0.31101267    -0.24560
C1191       C  0.70590774  0.14065387  0.28510787    -0.05480
N1192       N  0.83265527  0.17163835  0.33529326    -0.45670
N1193       N  0.71162693  0.27648525  0.15430188    -0.45890
C1194       C  0.68817351  0.15326458  0.31791391     0.43430
N1195       N  0.73448213  0.16549970  0.20009036     0.02300
N1196       N  0.73708960  0.26475672  0.31152353    -0.24580
N1197       N  0.81052656  0.15957409  0.28133692    -0.25070
N1198       N  0.73775683  0.28956062  0.28608896     0.01940
H1199       H  0.70775848  0.25984374  0.36199096     0.07830
H1200       H  0.70846410  0.33933660  0.21692612     0.07860
N1201       N  0.73546180  0.19000075  0.17434683    -0.25120
N1202       N  0.81528907  0.29016024  0.20587727    -0.24740
N1203       N  0.73340511  0.18582736  0.30713397     0.02300
C1204       C  0.85612158  0.15282716  0.16550583     0.43700
C1205       C  0.84200913  0.26324353  0.33349337    -0.05990
N1206       N  0.73843070  0.29269961  0.20494337    -0.24730
H1207       H  0.84629922  0.33633659  0.21775547     0.07850
N1208       N  0.83812108  0.14118069  0.19514205    -0.45960
H1209       H  0.84783947  0.24602620  0.35636231     0.07830
C1210       C  0.69785188  0.30729278  0.32354648     0.43530
C1211       C  0.83453267  0.13426674  0.28749448    -0.05480
Co1212     Co  0.77368420  0.22303924  0.31055280     0.73820
N1213       N  0.84279564  0.30703099  0.29108358    -0.45670
C1214       C  0.69472638  0.14882525  0.16203154     0.43800
N1215       N  0.70672434  0.18127825  0.33017936    -0.45660
Co1216     Co  0.77670510  0.29009235  0.24597053     0.73890
C1217       C  0.71320185  0.31690828  0.19952319    -0.05990
C1218       C  0.83876690  0.18500517  0.15267315    -0.05550
N1219       N  0.73352791  0.16244258  0.28061349    -0.25080
N1220       N  0.83720226  0.27775852  0.15196110    -0.45840
H1221       H  0.70779101  0.19502134  0.12285382     0.07810
C1222       C  0.71292538  0.27389901  0.33676852    -0.05970
Cl1223     Cl  0.77428810  0.22623411  0.24315540    -0.48970
C1224       C  0.86096332  0.29436831  0.32007412     0.43560
H1225       H  0.69942585  0.11873207  0.26759995     0.07770
N1226       N  0.71519331  0.31555727  0.29250588    -0.45680
C1227       C  0.77298051  0.47449946  0.51152518     0.01520
C1228       C  0.77335217  0.47446573  0.47412316     0.01520
C1229       C  0.52294274  0.23030948  0.97550091     0.01520
C1230       C  0.52253917  0.23263085  0.01295497     0.01520
C1231       C  0.52603084  0.22748940  0.47938036     0.01520
C1232       C  0.52509199  0.22649745  0.51671591     0.01520
C1233       C  0.77300383  0.47437291  0.01808059     0.01520
C1234       C  0.76796225  0.46936793  0.98067457     0.01520
C1235       C  0.85213459  0.39268921  0.87392989     0.04080
C1236       C  0.88437630  0.40769447  0.86250963    -0.12070
C1237       C  0.90466143  0.39118698  0.83530654     0.01580
C1238       C  0.89253568  0.35945807  0.82017638    -0.10590
C1239       C  0.86064421  0.34416844  0.83192331     0.04080
C1240       C  0.84055775  0.36094027  0.85880110    -0.10010
H1241       H  0.89310957  0.43232112  0.87436522     0.09670
H1242       H  0.90811822  0.34654661  0.79938009     0.07200
H1243       H  0.81566069  0.34952330  0.86792585     0.07050
C1244       C  0.93395885  0.13624184  0.88880260     0.04080
C1245       C  0.90061085  0.14775938  0.87561676    -0.12070
C1246       C  0.88416930  0.13059780  0.84631501     0.01580
C1247       C  0.89941770  0.09993484  0.83229148    -0.10590
C1248       C  0.93116165  0.08654411  0.84655469     0.04080
C1249       C  0.94849509  0.10479526  0.87467706    -0.10010
H1250       H  0.88914489  0.17206732  0.88559938     0.09670
H1251       H  0.88796797  0.08796067  0.80820618     0.07200
H1252       H  0.97491422  0.09652707  0.88269498     0.07050
C1253       C  0.68919153  0.05961041  0.88160466     0.04080
C1254       C  0.65934962  0.04508975  0.86410259    -0.12070
C1255       C  0.64274462  0.06313633  0.83511429     0.01580
C1256       C  0.65693441  0.09529551  0.82280455    -0.10590
C1257       C  0.68675889  0.10998817  0.83968088     0.04080
C1258       C  0.70187517  0.09270868  0.86983444    -0.10010
H1259       H  0.64964695  0.01929611  0.87226507     0.09670
H1260       H  0.64491495  0.10895817  0.79992677     0.07200
H1261       H  0.72416190  0.10458363  0.88373122     0.07050
C1262       C  0.61778662  0.31804319  0.88704106     0.04080
C1263       C  0.60348591  0.34900904  0.87118667    -0.12070
C1264       C  0.62154800  0.36740178  0.84361487     0.01580
C1265       C  0.65321494  0.35354584  0.82977641    -0.10590
C1266       C  0.66829754  0.32312722  0.84531069     0.04080
C1267       C  0.65159664  0.30672562  0.87521293    -0.10010
H1268       H  0.57673147  0.35731147  0.87753048     0.09670
H1269       H  0.66502900  0.36524861  0.80558591     0.07200
H1270       H  0.66369027  0.28337104  0.88696035     0.07050
C1271       C  0.61749420  0.13321026  0.60136085     0.04080
C1272       C  0.65044029  0.14514022  0.61492968    -0.12070
C1273       C  0.66719421  0.12736867  0.64392652     0.01580
C1274       C  0.65257392  0.09583239  0.65728278    -0.10590
C1275       C  0.62143023  0.08201468  0.64215565     0.04080
C1276       C  0.60386683  0.10085221  0.61447951    -0.10010
H1277       H  0.66131112  0.17007278  0.60550653     0.09670
H1278       H  0.66402305  0.08336789  0.68126783     0.07200
H1279       H  0.57767824  0.09217227  0.60622259     0.07050
C1280       C  0.85683151  0.06003006  0.60970868     0.04080
C1281       C  0.88691514  0.04485351  0.62589865    -0.12070
C1282       C  0.90575543  0.06259205  0.65332654     0.01580
C1283       C  0.89303143  0.09508972  0.66608149    -0.10590
C1284       C  0.86256030  0.11033554  0.65053477     0.04080
C1285       C  0.84561764  0.09330104  0.62145801    -0.10010
H1286       H  0.89504492  0.01873755  0.61765667     0.09670
H1287       H  0.90668418  0.10837078  0.68808131     0.07200
H1288       H  0.82299094  0.10542965  0.60829404     0.07050
C1289       C  0.84792727  0.31094191  0.81609690     0.43410
N1290       N  0.81604392  0.26522557  0.80685536     0.02300
C1291       C  0.81482512  0.16062150  0.65298858    -0.05570
H1292       H  0.80538137  0.29172780  0.62307238     0.07790
C1293       C  0.68523960  0.28874138  0.70140507    -0.05930
Co1294     Co  0.83895117  0.22588806  0.74033832     0.74180
N1295       N  0.81130651  0.26347676  0.67424878    -0.25100
Co1296     Co  0.77111043  0.22525616  0.67662579     0.74070
C1297       C  0.69679342  0.30625042  0.66781793     0.43510
N1298       N  0.71196835  0.26324598  0.78730799     0.01920
N1299       N  0.73183398  0.26332262  0.67958035     0.02020
N1300       N  0.85915591  0.16072187  0.69479696    -0.45950
H1301       H  0.88263766  0.29977211  0.76564106     0.07780
N1302       N  0.83625455  0.26407436  0.69947041     0.02310
N1303       N  0.73118404  0.18669403  0.67954351     0.02050
C1304       C  0.69338719  0.14613739  0.66648269     0.43650
N1305       N  0.73691983  0.26336407  0.81253197    -0.24560
C1306       C  0.86602989  0.16390872  0.78786486    -0.05480
N1307       N  0.82005865  0.29232034  0.82896891    -0.45670
N1308       N  0.72192298  0.16409400  0.65368912    -0.45890
C1309       C  0.85782905  0.14943331  0.82375137     0.43430
N1310       N  0.83641245  0.18687794  0.70027059     0.02300
N1311       N  0.73954193  0.18688922  0.81300713    -0.24580
N1312       N  0.83949839  0.26496954  0.78011073    -0.25070
N1313       N  0.71362206  0.18612569  0.78879874     0.01940
H1314       H  0.75223345  0.15466238  0.85980307     0.07830
H1315       H  0.66170507  0.15609352  0.71887446     0.07860
N1316       N  0.81036776  0.18718310  0.67619123    -0.25120
N1317       N  0.70851163  0.26255508  0.70643577    -0.24740
N1318       N  0.81890243  0.18862096  0.80958467     0.02300
C1319       C  0.85253105  0.30405200  0.66111379     0.43700
C1320       C  0.72833914  0.28765949  0.83766821    -0.05990
N1321       N  0.70915201  0.18593777  0.70750257    -0.24730
H1322       H  0.66307449  0.29443412  0.71912517     0.07850
N1323       N  0.86132193  0.28757946  0.69249664    -0.45960
H1324       H  0.74262725  0.29251619  0.86271709     0.07830
C1325       C  0.70287313  0.14250430  0.82468428     0.43530
C1326       C  0.86101725  0.29289384  0.78373242    -0.05480
Co1327     Co  0.77795359  0.22604114  0.81129745     0.73820
N1328       N  0.68653590  0.28645852  0.79364461    -0.45670
C1329       C  0.84720949  0.14311156  0.66526163     0.43800
N1330       N  0.82879116  0.16663788  0.83611065    -0.45660
Co1331     Co  0.71022864  0.22437209  0.74758552     0.73890
C1332       C  0.68475046  0.16088632  0.70194437    -0.05990
C1333       C  0.81962831  0.28751015  0.64834167    -0.05550
N1334       N  0.84095132  0.18815380  0.78163388    -0.25080
N1335       N  0.72591676  0.28916458  0.65586543    -0.45840
H1336       H  0.79745902  0.15481744  0.63034925     0.07810
C1337       C  0.73512170  0.16031328  0.83682628    -0.05970
Cl1338     Cl  0.77456268  0.22531808  0.74396099    -0.48970
C1339       C  0.69521318  0.30354844  0.82449404     0.43560
H1340       H  0.88914716  0.15950686  0.77100387     0.07770
N1341       N  0.69108241  0.15988830  0.79474829    -0.45680
C1342       C  0.93107400  0.31841030  0.60018317     0.04080
C1343       C  0.89661994  0.30767211  0.61083626    -0.12070
C1344       C  0.87937753  0.32391982  0.64020171     0.01580
C1345       C  0.89465129  0.35370540  0.65625951    -0.10590
C1346       C  0.92715767  0.36704193  0.64381279     0.04080
C1347       C  0.94558284  0.34896469  0.61638316    -0.10010
H1348       H  0.88458285  0.28452467  0.59890193     0.09670
H1349       H  0.88242370  0.36505561  0.68024512     0.07200
H1350       H  0.97263119  0.35683634  0.61050713     0.07050
C1351       C  0.68773442  0.38885829  0.60971136     0.04080
C1352       C  0.65706345  0.40381362  0.62522885    -0.12070
C1353       C  0.63853702  0.38591382  0.65297052     0.01580
C1354       C  0.65124621  0.35344031  0.66573377    -0.10590
C1355       C  0.68199087  0.33855169  0.65124456     0.04080
C1356       C  0.69938295  0.35564419  0.62235036    -0.10010
H1357       H  0.64829095  0.42981603  0.61668405     0.09670
H1358       H  0.63726757  0.33974019  0.68728677     0.07200
H1359       H  0.72261980  0.34352202  0.61039352     0.07050
C1360       C  0.95040899  0.06029220  0.82481985     0.43410
N1361       N  0.98814272  0.02023702  0.81067582     0.02300
C1362       C  0.58532796  0.02234089  0.64921989    -0.05570
H1363       H  0.95001474  0.99798051  0.63302906     0.07790
C1364       C  0.96010466  0.38572739  0.70188006    -0.05930
Co1365     Co  0.52459633  0.03983737  0.74125253     0.74180
N1366       N  0.98443141  0.01159354  0.67738937    -0.25100
Co1367     Co  0.52323153  0.47307694  0.67703070     0.74070
C1368       C  0.94567866  0.39355289  0.66602752     0.43510
N1369       N  0.98407841  0.41571309  0.78850233     0.01920
N1370       N  0.98489235  0.43268579  0.67941621     0.02020
N1371       N  0.58570479  0.06278424  0.69405946    -0.45950
H1372       H  0.96021713  0.09089349  0.77163291     0.07780
N1373       N  0.98447547  0.03731972  0.70151694     0.02310
N1374       N  0.56207220  0.43453321  0.68009641     0.02050
C1375       C  0.60665979  0.40124639  0.66985355     0.43650
N1376       N  0.98493864  0.44123743  0.81284382    -0.24560
C1377       C  0.59257528  0.06133859  0.78480779    -0.05480
N1378       N  0.96696477  0.03088768  0.83743004    -0.45670
N1379       N  0.58881068  0.42969651  0.65723043    -0.45890
C1380       C  0.61093613  0.04827248  0.81737770     0.43430
N1381       N  0.56218394  0.03767505  0.70050624     0.02300
N1382       N  0.56226932  0.43731164  0.81270628    -0.24580
N1383       N  0.98755371  0.04207191  0.78250546    -0.25070
N1384       N  0.56160270  0.41307370  0.78713300     0.01940
H1385       H  0.59281596  0.44153409  0.86245261     0.07830
H1386       H  0.59460620  0.36691810  0.72070627     0.07860
N1387       N  0.56132946  0.01343997  0.67492506    -0.25120
N1388       N  0.98431293  0.41087891  0.70758513    -0.24740
N1389       N  0.56514457  0.01622082  0.80766932     0.02300
C1390       C  0.93836622  0.04669820  0.66853973     0.43700
C1391       C  0.95692896  0.43784756  0.83515289    -0.05990
N1392       N  0.56134113  0.41106085  0.70689159    -0.24730
H1393       H  0.95606495  0.36260780  0.71888582     0.07850
N1394       N  0.95723620  0.05913977  0.69711864    -0.45960
H1395       H  0.95064808  0.45509541  0.85760410     0.07830
C1396       C  0.60271620  0.39517258  0.82319140     0.43530
C1397       C  0.96419011  0.06779584  0.78868349    -0.05480
Co1398     Co  0.52516148  0.47874180  0.81193956     0.73820
N1399       N  0.95648090  0.39451021  0.79293461    -0.45670
C1400       C  0.60202239  0.05476447  0.66264927     0.43800
N1401       N  0.59232481  0.02034451  0.83012445    -0.45660
Co1402     Co  0.52270322  0.41213652  0.74766809     0.73890
C1403       C  0.58847546  0.38879192  0.70269758    -0.05990
C1404       C  0.95647457  0.01528784  0.65537733    -0.05550
N1405       N  0.56462600  0.03980317  0.78094359    -0.25080
N1406       N  0.96291038  0.42250553  0.65314416    -0.45840
H1407       H  0.58952269  0.00871888  0.62377090     0.07810
C1408       C  0.58719205  0.42794116  0.83727368    -0.05970
Cl1409     Cl  0.52385552  0.47596176  0.74447382    -0.48970
C1410       C  0.93812395  0.40678413  0.82182597     0.43560
H1411       H  0.59900889  0.08329025  0.76699161     0.07770
N1412       N  0.58481052  0.38745015  0.79260246    -0.45680
C1413       C  0.69097684  0.01946356  0.93720305     0.24550
C1414       C  0.70893437  0.03920914  0.91004755    -0.23560
C1415       C  0.74635285  0.03811047  0.90912522     0.19460
C1416       C  0.76516313  0.01764746  0.93421139     0.24490
C1417       C  0.74718579  0.99638639  0.95989518    -0.23500
C1418       C  0.70994100  0.99775996  0.96152499     0.19390
F1419       F  0.69201779  0.47718815  0.98572193    -0.13460
F1420       F  0.65506530  0.02078573  0.93995603    -0.15820
F1421       F  0.80117630  0.01681887  0.93214761    -0.15820
F1422       F  0.76492689  0.05497440  0.88244988    -0.13460
C1423       C  0.81420785  0.41826744  0.96498281     0.24550
C1424       C  0.78560218  0.44125770  0.95552775    -0.23560
C1425       C  0.77539345  0.43974970  0.91797401     0.19460
C1426       C  0.79780351  0.42551802  0.89152072     0.24490
C1427       C  0.82990328  0.40991310  0.90156227    -0.23500
C1428       C  0.83719569  0.40498572  0.93846249     0.19390
F1429       F  0.86462418  0.38389991  0.94887069    -0.13460
F1430       F  0.81543514  0.40049929  0.99677801    -0.15820
F1431       F  0.78784468  0.42656793  0.85593091    -0.15820
F1432       F  0.74314678  0.45118832  0.90632047    -0.13460
C1433       C  0.56952807  0.21541031  0.56642170     0.24550
C1434       C  0.54812490  0.20183381  0.53844140    -0.23560
C1435       C  0.54913790  0.16525549  0.53165577     0.19460
C1436       C  0.57292494  0.14332586  0.55057823     0.24490
C1437       C  0.59460596  0.15696447  0.57852590    -0.23500
C1438       C  0.59189405  0.19327369  0.58664603     0.19390
F1439       F  0.60981620  0.20741375  0.61515708    -0.13460
F1440       F  0.56889976  0.25039774  0.57426053    -0.15820
F1441       F  0.57473432  0.10871047  0.54137502    -0.15820
F1442       F  0.52669298  0.15052666  0.50711979    -0.13460
C1443       C  0.00332421  0.28749077  0.53421416     0.24550
C1444       C  0.00098828  0.25052472  0.53755720    -0.23560
C1445       C  0.97518613  0.23599095  0.56078832     0.19460
C1446       C  0.95235831  0.25776507  0.58062011     0.24490
C1447       C  0.95391071  0.29501092  0.57689334    -0.23500
C1448       C  0.97955195  0.30942265  0.55285898     0.19390
F1449       F  0.98165228  0.34480764  0.54706452    -0.13460
F1450       F  0.52903103  0.30243578  0.51323284    -0.15820
F1451       F  0.92982367  0.24198974  0.60458458    -0.15820
F1452       F  0.97187706  0.20038938  0.56409515    -0.13460
C1453       C  0.56958074  0.31090159  0.93482934     0.24550
C1454       C  0.59525678  0.29545947  0.91180845    -0.23560
C1455       C  0.59648182  0.25807673  0.91017411     0.19460
C1456       C  0.57375829  0.23727822  0.93163438     0.24490
C1457       C  0.54770593  0.25296626  0.95347177    -0.23500
C1458       C  0.54490367  0.28995185  0.95347673     0.19390
F1459       F  0.51722984  0.30595203  0.97014952    -0.13460
F1460       F  0.56793819  0.34640807  0.93939620    -0.15820
F1461       F  0.57664137  0.20156258  0.93037333    -0.15820
F1462       F  0.61830148  0.24121274  0.88659220    -0.13460
C1463       C  0.95771660  0.19653299  0.90475457     0.24550
C1464       C  0.95602647  0.15994957  0.91233866    -0.23560
C1465       C  0.97731869  0.14637500  0.94087396     0.19460
C1466       C  0.99954813  0.16875467  0.96111322     0.24490
C1467       C  0.99996659  0.20542543  0.95426433    -0.23500
C1468       C  0.97890972  0.21887960  0.92571238     0.19390
F1469       F  0.97866841  0.25402715  0.91807610    -0.13460
F1470       F  0.93994072  0.21081373  0.87600579    -0.15820
F1471       F  0.02094423  0.15450847  0.98711637    -0.15820
F1472       F  0.97655429  0.11143342  0.94937350    -0.13460
C1473       C  0.77839168  0.01969014  0.56035552     0.24550
C1474       C  0.79508237  0.99916402  0.53357636    -0.23560
C1475       C  0.83234927  0.99962840  0.53105933     0.19460
C1476       C  0.85241662  0.02064062  0.55461908     0.24490
C1477       C  0.83570212  0.04019914  0.58233580    -0.23500
C1478       C  0.79838397  0.03938093  0.58485153     0.19390
F1479       F  0.78109403  0.05620486  0.61217956    -0.13460
F1480       F  0.74245338  0.51986378  0.56351390    -0.15820
F1481       F  0.88822432  0.02156840  0.55046787    -0.15820
F1482       F  0.84942682  0.97864078  0.50689767    -0.13460
C1483       C  0.74647219  0.40988435  0.58564254     0.24550
C1484       C  0.70919388  0.40892463  0.58249233    -0.23560
C1485       C  0.69287716  0.42840831  0.55416503     0.19460
C1486       C  0.71329424  0.44934073  0.53049962     0.24490
C1487       C  0.75052903  0.44983278  0.53359529    -0.23500
C1488       C  0.76681297  0.42945324  0.56106621     0.19390
F1489       F  0.80269277  0.42933077  0.56482707    -0.13460
F1490       F  0.76339175  0.39333656  0.61365429    -0.15820
F1491       F  0.69656942  0.47022716  0.50565956    -0.15820
F1492       F  0.65713325  0.42746278  0.54948852    -0.13460
C1493       C  0.71764565  0.01714920  0.09496762     0.24550
C1494       C  0.70619402  0.04880216  0.07907067    -0.23560
C1495       C  0.72205913  0.05958851  0.04616898     0.19460
C1496       C  0.74643828  0.03741407  0.02819818     0.24490
C1497       C  0.75309935  0.00238237  0.04079064    -0.23500
C1498       C  0.74087767  0.99474085  0.07676753     0.19390
F1499       F  0.75261359  0.46700255  0.09661639    -0.13460
F1500       F  0.70763785  0.00846771  0.12949996    -0.15820
F1501       F  0.76556048  0.05167523  0.00051406    -0.15820
F1502       F  0.71446968  0.09181129  0.03169401    -0.13460
C1503       C  0.60570919  0.18173348  0.43616257     0.24550
C1504       C  0.58897084  0.16216835  0.40845126    -0.23560
C1505       C  0.55170339  0.16335115  0.40558787     0.19460
C1506       C  0.53170652  0.18308412  0.42994211     0.24490
C1507       C  0.54832171  0.20327154  0.45706172    -0.23500
C1508       C  0.58557762  0.20261710  0.45986667     0.19390
F1509       F  0.60251488  0.22303538  0.48467220    -0.13460
F1510       F  0.64151611  0.18074136  0.44027772    -0.15820
F1511       F  0.49579769  0.18295544  0.42655202    -0.15820
F1512       F  0.53445637  0.14662215  0.37813954    -0.13460
C1513       C  0.82009787  0.05773335  0.43869101     0.24550
C1514       C  0.84324934  0.04372099  0.41224332    -0.23560
C1515       C  0.84242019  0.00694566  0.40605569     0.19460
C1516       C  0.82003071  0.98489024  0.42640887     0.24490
C1517       C  0.79696949  0.99890664  0.45269602    -0.23500
C1518       C  0.79656066  0.03573712  0.45789903     0.19390
F1519       F  0.77289451  0.05059138  0.48108849    -0.13460
F1520       F  0.82016617  0.09281748  0.44605716    -0.15820
F1521       F  0.82092009  0.44955617  0.42037509    -0.15820
F1522       F  0.86216256  0.99220763  0.37920341    -0.13460
C1523       C  0.53647660  0.28961005  0.04447974     0.24550
C1524       C  0.54785647  0.25691401  0.03149597    -0.23560
C1525       C  0.58263159  0.24597459  0.03877447     0.19460
C1526       C  0.60325605  0.26409391  0.06427002     0.24490
C1527       C  0.59203459  0.29729918  0.07823343    -0.23500
C1528       C  0.55963408  0.31105003  0.06417415     0.19390
F1529       F  0.54994882  0.34522899  0.06867091    -0.13460
F1530       F  0.50283845  0.30094608  0.03806065    -0.15820
F1531       F  0.63240818  0.24693525  0.07670108    -0.15820
F1532       F  0.59439173  0.21458090  0.02574892    -0.13460
C1533       C  0.99381905  0.17336603  0.09249505     0.24550
C1534       C  0.95912853  0.16424761  0.08293186    -0.23560
C1535       C  0.94387171  0.17963928  0.05161405     0.19460
C1536       C  0.96348030  0.20329056  0.02994299     0.24490
C1537       C  0.99965557  0.20997378  0.03759049    -0.23500
C1538       C  0.01392161  0.19533533  0.07016400     0.19390
F1539       F  0.54735421  0.20207834  0.08155244    -0.13460
F1540       F  0.00809884  0.16200640  0.12453608    -0.15820
F1541       F  0.94656809  0.22043369  0.00237261    -0.15820
F1542       F  0.90987684  0.17200852  0.04216085    -0.13460
C1543       C  0.72724725  0.46428099  0.42603548     0.24550
C1544       C  0.75004435  0.45010424  0.45268333    -0.23560
C1545       C  0.75046011  0.41323257  0.45820990     0.19460
C1546       C  0.72722075  0.39131603  0.43881685     0.24490
C1547       C  0.70423051  0.40554932  0.41213097    -0.23500
C1548       C  0.70505517  0.44235922  0.40567884     0.19390
F1549       F  0.68543087  0.45725909  0.37858709    -0.13460
F1550       F  0.72636547  0.49965176  0.41969024    -0.15820
F1551       F  0.72722480  0.35614041  0.44626280    -0.15820
F1552       F  0.77381919  0.39829827  0.48191318    -0.13460
C1553       C  0.85686186  0.43382128  0.05761270     0.24550
C1554       C  0.84333134  0.40545303  0.07897271    -0.23560
C1555       C  0.80608453  0.39994278  0.07887780     0.19460
C1556       C  0.78383984  0.42083331  0.05718902     0.24490
C1557       C  0.79718605  0.45082894  0.03900387    -0.23500
C1558       C  0.83388737  0.45726585  0.03951310     0.19390
F1559       F  0.84764643  0.48475487  0.02016255    -0.13460
F1560       F  0.89232642  0.43839740  0.05300331    -0.15820
F1561       F  0.74877858  0.41260526  0.05490316    -0.15820
F1562       F  0.79041882  0.37549677  0.10079253    -0.13460
C1563       C  0.94620602  0.27157851  0.43504968     0.24550
C1564       C  0.96278284  0.29245214  0.40794832    -0.23560
C1565       C  0.00018682  0.29380613  0.40687532     0.19460
C1566       C  0.02032918  0.27452304  0.43188557     0.24490
C1567       C  0.00376842  0.25238674  0.45763247    -0.23500
C1568       C  0.96650710  0.25101713  0.45899549     0.19390
F1569       F  0.94974565  0.22830186  0.48204717    -0.13460
F1570       F  0.91029227  0.27053899  0.43806549    -0.15820
F1571       F  0.55630412  0.27636702  0.43003416    -0.15820
F1572       F  0.01753668  0.31211143  0.38034102    -0.13460
C1573       C  0.94139317  0.81105864  0.37964042     0.04080
C1574       C  0.91215484  0.79429151  0.36339664    -0.12070
C1575       C  0.89277998  0.81112585  0.33564851     0.01580
C1576       C  0.90400372  0.84414917  0.32258425    -0.10590
C1577       C  0.93355163  0.86090832  0.33791415     0.04080
C1578       C  0.95124099  0.84485731  0.36728549    -0.10010
H1579       H  0.90495562  0.76779987  0.37179343     0.09670
H1580       H  0.88966876  0.85672231  0.30046710     0.07200
H1581       H  0.97322563  0.85843077  0.38006666     0.07050
C1582       C  0.86738990  0.88351888  0.10296678     0.04080
C1583       C  0.89729362  0.89915088  0.11956191    -0.12070
C1584       C  0.91662923  0.88127127  0.14657318     0.01580
C1585       C  0.90477290  0.84843209  0.15918103    -0.10590
C1586       C  0.87514783  0.83223710  0.14336913     0.04080
C1587       C  0.85825138  0.84863065  0.11357883    -0.10010
H1588       H  0.90399896  0.92646957  0.11419956     0.09670
H1589       H  0.91698643  0.83668873  0.18314846     0.07200
H1590       H  0.83595284  0.83529298  0.10124739     0.07050
C1591       C  0.68171280  0.88220594  0.38883686     0.04080
C1592       C  0.69649706  0.85181887  0.37290862    -0.12070
C1593       C  0.67874421  0.83413155  0.34478833     0.01580
C1594       C  0.64619118  0.84729285  0.33204590    -0.10590
C1595       C  0.63031459  0.87669828  0.34850171     0.04080
C1596       C  0.64751583  0.89311563  0.37779611    -0.10010
H1597       H  0.72329494  0.84380063  0.37980183     0.09670
H1598       H  0.63423326  0.83593504  0.30792256     0.07200
H1599       H  0.63585820  0.91664669  0.38939065     0.07050
C1600       C  0.93825970  0.64187592  0.10826337     0.04080
C1601       C  0.90623692  0.65454507  0.12187469    -0.12070
C1602       C  0.88873817  0.63710898  0.15052206     0.01580
C1603       C  0.90362184  0.60619642  0.16550897    -0.10590
C1604       C  0.93576238  0.59282335  0.15175082     0.04080
C1605       C  0.95258949  0.61063007  0.12278096    -0.10010
H1606       H  0.89618438  0.67927247  0.11122241     0.09670
H1607       H  0.89054727  0.59295030  0.18808649     0.07200
H1608       H  0.97764263  0.60116864  0.11224881     0.07050
C1609       C  0.94700512  0.89434674  0.32247635     0.43410
N1610       N  0.48146974  0.93814502  0.31191734     0.02300
C1611       C  0.98479326  0.54329971  0.15613222    -0.05570
H1612       H  0.49087958  0.91088960  0.12938159     0.07790
C1613       C  0.60917239  0.90893503  0.20799490    -0.05930
Co1614     Co  0.95974481  0.97854515  0.24483626     0.74180
N1615       N  0.48555390  0.94012150  0.17951059    -0.25100
Co1616     Co  0.52707444  0.97686950  0.18070370     0.74070
C1617       C  0.59592879  0.89060543  0.17588348     0.43510
N1618       N  0.58584052  0.93723083  0.29134045     0.01920
N1619       N  0.56459390  0.93687804  0.18458911     0.02020
N1620       N  0.94076061  0.54383746  0.19820611    -0.46190
H1621       H  0.91278982  0.90713786  0.27184650     0.07780
N1622       N  0.96062199  0.94047539  0.20472207     0.02310
N1623       N  0.56863341  0.51388136  0.18228110     0.02050
C1624       C  0.60798769  0.55273346  0.16781782     0.43650
N1625       N  0.56124918  0.93739450  0.31690830    -0.24560
C1626       C  0.93537342  0.54131630  0.29086110    -0.05480
N1627       N  0.47601857  0.91148645  0.33472601    -0.45670
N1628       N  0.57851026  0.53596082  0.15580676    -0.45890
C1629       C  0.94365362  0.55535157  0.32661002     0.43430
N1630       N  0.96327666  0.51750388  0.20413229     0.02300
N1631       N  0.56059308  0.51387985  0.31628329    -0.24580
N1632       N  0.95791254  0.93948528  0.28527489    -0.25070
N1633       N  0.58632933  0.51435789  0.29183740     0.01940
H1634       H  0.54850559  0.54599450  0.36270021     0.07830
H1635       H  0.63972035  0.54203338  0.22024268     0.07860
N1636       N  0.48911885  0.51663345  0.17982405    -0.25120
N1637       N  0.58810499  0.93708577  0.21126851    -0.24740
N1638       N  0.48127681  0.51477060  0.31347115     0.02300
C1639       C  0.94335734  0.90056698  0.16763886     0.43700
C1640       C  0.56996985  0.91270980  0.34207667    -0.05990
N1641       N  0.59091870  0.51399928  0.21005320    -0.24730
H1642       H  0.63075919  0.90220739  0.22616322     0.07850
N1643       N  0.93479500  0.91769559  0.19839752    -0.45960
H1644       H  0.55613564  0.90792973  0.36747209     0.07830
C1645       C  0.59784741  0.55764653  0.32727229     0.43530
C1646       C  0.93493080  0.91279976  0.28963379    -0.05480
Co1647     Co  0.52107327  0.97595422  0.31551346     0.73820
N1648       N  0.61089085  0.91348851  0.29728944    -0.45670
C1649       C  0.95266323  0.56131214  0.16833408     0.43800
N1650       N  0.97187944  0.53701314  0.33963151    -0.45660
Co1651     Co  0.58841384  0.97589267  0.25114920     0.73890
C1652       C  0.61639767  0.53792777  0.20357551    -0.05990
C1653       C  0.97667403  0.91594736  0.15442331    -0.05550
N1654       N  0.95949568  0.51616955  0.28532972    -0.25080
N1655       N  0.56839908  0.90956050  0.16257931    -0.45840
H1656       H  0.50167010  0.54861172  0.13289897     0.07810
C1657       C  0.56551811  0.54020139  0.33978677    -0.05970
Cl1658     Cl  0.52408644  0.97693376  0.24805260    -0.48970
C1659       C  0.60264643  0.89624093  0.32832558     0.43560
H1660       H  0.91253508  0.54645340  0.27373495     0.07770
N1661       N  0.60926191  0.54030557  0.29736571    -0.45680
C1662       C  0.61167553  0.81604530  0.10871756     0.04080
C1663       C  0.59440439  0.84212047  0.12991208    -0.12070
C1664       C  0.61217904  0.86000635  0.15775628     0.01580
C1665       C  0.64576730  0.84870952  0.16840329    -0.10590
C1666       C  0.66258922  0.82115959  0.15034767     0.04080
C1667       C  0.64684419  0.80698441  0.11898248    -0.10010
H1668       H  0.56684259  0.84846497  0.12618282     0.09670
H1669       H  0.65878546  0.86130309  0.19103903     0.07200
H1670       H  0.66268638  0.78883340  0.10336462     0.07050
C1671       C  0.86574769  0.56740461  0.38890343     0.04080
C1672       C  0.89984120  0.55663478  0.37739899    -0.12070
C1673       C  0.91695576  0.57409764  0.34840677     0.01580
C1674       C  0.90142268  0.60428222  0.33302253    -0.10590
C1675       C  0.86873522  0.61669695  0.34554004     0.04080
C1676       C  0.85090878  0.59820719  0.37331023    -0.10010
H1677       H  0.91145263  0.53263141  0.38832870     0.09670
H1678       H  0.91336393  0.61640578  0.30909792     0.07200
H1679       H  0.82395958  0.60580469  0.37993049     0.07050
C1680       C  0.60979001  0.64147983  0.38158921     0.04080
C1681       C  0.59780283  0.60801358  0.37083022    -0.12070
C1682       C  0.61362593  0.59039861  0.34155729     0.01580
C1683       C  0.64342610  0.60525044  0.32466411    -0.10590
C1684       C  0.65685332  0.63789815  0.33609061     0.04080
C1685       C  0.63969927  0.65612103  0.36427347    -0.10010
H1686       H  0.57529721  0.59630123  0.38466774     0.09670
H1687       H  0.65591351  0.59138949  0.30240327     0.07200
H1688       H  0.64884266  0.68220622  0.37176107     0.07050
C1689       C  0.68142221  0.57163188  0.10009149     0.04080
C1690       C  0.65050717  0.55662079  0.11560474    -0.12070
C1691       C  0.63331495  0.57294223  0.14499205     0.01580
C1692       C  0.64633679  0.60519566  0.15783592    -0.10590
C1693       C  0.67581612  0.62149015  0.14142379     0.04080
C1694       C  0.69295666  0.60489031  0.11216252    -0.10010
H1695       H  0.64229391  0.53035456  0.10756723     0.09670
H1696       H  0.63505564  0.61642442  0.18236026     0.07200
H1697       H  0.71787725  0.61554090  0.10217542     0.07050
C1698       C  0.84941074  0.64247858  0.32298092     0.43410
N1699       N  0.81045222  0.68158281  0.30903047     0.02300
C1700       C  0.71155093  0.68137527  0.14856545    -0.05570
H1701       H  0.84476912  0.70210014  0.12977738     0.07790
C1702       C  0.84111599  0.81376948  0.20062694    -0.05930
Co1703     Co  0.77272192  0.66228557  0.24051561     0.74180
N1704       N  0.81201767  0.68980473  0.17580711    -0.25100
Co1705     Co  0.77451257  0.72951346  0.17569967     0.74070
C1706       C  0.85593372  0.80548661  0.16512554     0.43510
N1707       N  0.81528668  0.78577837  0.28653865     0.01920
N1708       N  0.81412466  0.76862470  0.17782339     0.02020
N1709       N  0.71088190  0.64053929  0.19363487    -0.45950
H1710       H  0.83864038  0.61120541  0.27078230     0.07780
N1711       N  0.81195764  0.66404823  0.20025083     0.02310
N1712       N  0.73705588  0.76952513  0.17825660     0.02050
C1713       C  0.69554311  0.80624420  0.16583763     0.43650
N1714       N  0.81419002  0.76008488  0.31101450    -0.24560
C1715       C  0.70590343  0.64065262  0.28510835    -0.05480
N1716       N  0.83264903  0.67163402  0.33529701    -0.45670
N1717       N  0.71162918  0.77648624  0.15429929    -0.45890
C1718       C  0.68816903  0.65326435  0.31791434     0.43430
N1719       N  0.73448095  0.66549722  0.20008931     0.02300
N1720       N  0.73708523  0.76475405  0.31152144    -0.24580
N1721       N  0.81052332  0.65957138  0.28133886    -0.25070
N1722       N  0.73775300  0.78955782  0.28608672     0.01940
H1723       H  0.70775240  0.75984072  0.36198770     0.07830
H1724       H  0.70846872  0.83933786  0.21692349     0.07860
N1725       N  0.73546125  0.68999826  0.17434571    -0.25120
N1726       N  0.81528959  0.79015633  0.20587924    -0.24740
N1727       N  0.73340176  0.68582548  0.30713392     0.02300
C1728       C  0.85612314  0.65282740  0.16550710     0.43700
C1729       C  0.84199934  0.76324830  0.33349994    -0.05990
N1730       N  0.73843139  0.79269805  0.20494210    -0.24730
H1731       H  0.84630574  0.83632793  0.21776095     0.07850
N1732       N  0.83812221  0.64117971  0.19514291    -0.45960
H1733       H  0.84782740  0.74603333  0.35637138     0.07830
C1734       C  0.69784635  0.80728924  0.32354252     0.43530
C1735       C  0.83452716  0.63426228  0.28749826    -0.05480
Co1736     Co  0.77368041  0.72303728  0.31055295     0.73820
N1737       N  0.84278594  0.80703521  0.29108932    -0.45670
C1738       C  0.69472721  0.64882174  0.16202846     0.43800
N1739       N  0.70672066  0.68127756  0.33017920    -0.45660
Co1740     Co  0.77670315  0.79008994  0.24597032     0.73890
C1741       C  0.71320510  0.81690891  0.19952085    -0.05990
C1742       C  0.83876713  0.68500430  0.15267427    -0.05550
N1743       N  0.73352441  0.66244047  0.28061362    -0.25080
N1744       N  0.83720782  0.77775040  0.15196623    -0.45840
H1745       H  0.70779305  0.69501778  0.12285110     0.07810
C1746       C  0.71291988  0.77389589  0.33676532    -0.05970
Cl1747     Cl  0.77428617  0.72623153  0.24315556    -0.48970
C1748       C  0.86095032  0.79437635  0.32008342     0.43560
H1749       H  0.69942094  0.61873082  0.26760065     0.07770
N1750       N  0.71518884  0.81555407  0.29250265    -0.45680
C1751       C  0.77298327  0.97450304  0.51150832     0.01520
C1752       C  0.77335571  0.97446845  0.47410664     0.01520
C1753       C  0.52295984  0.73030750  0.97549926     0.01520
C1754       C  0.52255255  0.73262435  0.01295345     0.01520
C1755       C  0.52601671  0.72748954  0.47937922     0.01520
C1756       C  0.52508101  0.72650415  0.51671631     0.01520
C1757       C  0.77299444  0.97435702  0.01810404     0.01520
C1758       C  0.76795978  0.96935635  0.98069746     0.01520
C1759       C  0.85212780  0.89270106  0.87393210     0.04080
C1760       C  0.88437307  0.90770175  0.86251472    -0.12070
C1761       C  0.90465833  0.89119097  0.83531363     0.01580
C1762       C  0.89253000  0.85946329  0.82018495    -0.10590
C1763       C  0.86063609  0.84417760  0.83193039     0.04080
C1764       C  0.84054849  0.86095256  0.85880419    -0.10010
H1765       H  0.89310926  0.93232686  0.87437142     0.09670
H1766       H  0.90811393  0.84654865  0.79939188     0.07200
H1767       H  0.81565034  0.84953715  0.86792775     0.07050
C1768       C  0.93397837  0.63625440  0.88878353     0.04080
C1769       C  0.90063344  0.64777593  0.87559386    -0.12070
C1770       C  0.88419140  0.63061337  0.84629317     0.01580
C1771       C  0.89943547  0.59994804  0.83227300    -0.10590
C1772       C  0.93117655  0.58655499  0.84653876     0.04080
C1773       C  0.94851139  0.60480532  0.87466071    -0.10010
H1774       H  0.88916962  0.67208591  0.88557382     0.09670
H1775       H  0.88798482  0.58797344  0.80818827     0.07200
H1776       H  0.97492890  0.59653392  0.88268076     0.07050
C1777       C  0.68920019  0.55961694  0.88157229     0.04080
C1778       C  0.65935842  0.54509452  0.86407260    -0.12070
C1779       C  0.64275148  0.56313901  0.83508459     0.01580
C1780       C  0.65693951  0.59529773  0.82277053    -0.10590
C1781       C  0.68676437  0.60999190  0.83964358     0.04080
C1782       C  0.70188261  0.59271427  0.86979808    -0.10010
H1783       H  0.64965653  0.51930126  0.87223728     0.09670
H1784       H  0.64491861  0.60895896  0.79989264     0.07200
H1785       H  0.72416846  0.60459089  0.88369452     0.07050
C1786       C  0.61780829  0.81804628  0.88704884     0.04080
C1787       C  0.60350267  0.84900960  0.87119365    -0.12070
C1788       C  0.62155941  0.86740237  0.84361826     0.01580
C1789       C  0.65322753  0.85354921  0.82977858    -0.10590
C1790       C  0.66831622  0.82313348  0.84531439     0.04080
C1791       C  0.65161897  0.80673173  0.87521899    -0.10010
H1792       H  0.57674799  0.85730956  0.87753998     0.09670
H1793       H  0.66503825  0.86525199  0.80558640     0.07200
H1794       H  0.66371527  0.78337862  0.88696666     0.07050
C1795       C  0.61748170  0.63321161  0.60135508     0.04080
C1796       C  0.65042516  0.64514508  0.61492624    -0.12070
C1797       C  0.66718109  0.62737251  0.64392060     0.01580
C1798       C  0.65256823  0.59583101  0.65727034    -0.10590
C1799       C  0.62142798  0.58200951  0.64213980     0.04080
C1800       C  0.60386044  0.60084867  0.61446748    -0.10010
H1801       H  0.66129221  0.67008073  0.60550725     0.09670
H1802       H  0.66401914  0.58336565  0.68125407     0.07200
H1803       H  0.57767296  0.59216588  0.60621011     0.07050
C1804       C  0.85682694  0.56003800  0.60971758     0.04080
C1805       C  0.88691308  0.54486272  0.62590233    -0.12070
C1806       C  0.90575773  0.56260158  0.65332616     0.01580
C1807       C  0.89303519  0.59509947  0.66608465    -0.10590
C1808       C  0.86256018  0.61034417  0.65054430     0.04080
C1809       C  0.84561341  0.59330802  0.62146989    -0.10010
H1810       H  0.89504190  0.51874678  0.61765905     0.09670
H1811       H  0.90669125  0.60838085  0.68808190     0.07200
H1812       H  0.82298473  0.60543471  0.60830850     0.07050
C1813       C  0.84792108  0.81095102  0.81610493     0.43410
N1814       N  0.81605234  0.76522482  0.80686365     0.02300
C1815       C  0.81481583  0.66061760  0.65300422    -0.05570
H1816       H  0.80538574  0.79171169  0.62305326     0.07790
C1817       C  0.68523845  0.78876171  0.70138046    -0.05930
Co1818     Co  0.83894689  0.72591986  0.74033781     0.74180
N1819       N  0.81129483  0.76347783  0.67423546    -0.25100
Co1820     Co  0.77109622  0.72524681  0.67661379     0.74070
C1821       C  0.69678423  0.80625469  0.66778303     0.43510
N1822       N  0.71198404  0.76326703  0.78729222     0.01920
N1823       N  0.73181929  0.76332235  0.67954810     0.02020
N1824       N  0.85915918  0.66074500  0.69479762    -0.45950
H1825       H  0.88261715  0.79980869  0.76563266     0.07780
N1826       N  0.83623207  0.76409755  0.69946860     0.02310
N1827       N  0.73117284  0.68669256  0.67953598     0.02050
C1828       C  0.69336841  0.64614386  0.66647960     0.43650
N1829       N  0.73692951  0.76336008  0.81252512    -0.24560
C1830       C  0.86605772  0.66394091  0.78785047    -0.05480
N1831       N  0.82006311  0.79231608  0.82898331    -0.45670
N1832       N  0.72191421  0.66408484  0.65368845    -0.45890
C1833       C  0.85785310  0.64944763  0.82372882     0.43430
N1834       N  0.83641106  0.68689882  0.70026945     0.02300
N1835       N  0.73955110  0.68688748  0.81297230    -0.24580
N1836       N  0.83949590  0.76498901  0.78011014    -0.25070
N1837       N  0.71361997  0.68614436  0.78877452     0.01940
H1838       H  0.75225267  0.65464222  0.85975007     0.07830
H1839       H  0.66167179  0.65613259  0.71885602     0.07860
N1840       N  0.81035815  0.68718480  0.67619878    -0.25120
N1841       N  0.70850652  0.76257401  0.70641189    -0.24740
N1842       N  0.81891208  0.68861864  0.80956570     0.02300
C1843       C  0.85251211  0.80406769  0.66110606     0.43700
C1844       C  0.72835000  0.78764705  0.83767132    -0.05990
N1845       N  0.70913071  0.68595932  0.70748570    -0.24730
H1846       H  0.66308038  0.79446347  0.71910650     0.07850
N1847       N  0.86129328  0.78760955  0.69249800    -0.45960
H1848       H  0.74263447  0.79248838  0.86272561     0.07830
C1849       C  0.70287720  0.64250880  0.82464652     0.43530
C1850       C  0.86100616  0.79291825  0.78373087    -0.05480
Co1851     Co  0.77796702  0.72602903  0.81128419     0.73820
N1852       N  0.68655893  0.78648586  0.79363462    -0.45670
C1853       C  0.84720799  0.64312071  0.66527193     0.43800
N1854       N  0.82880375  0.66663222  0.83608676    -0.45660
Co1855     Co  0.71022339  0.72440308  0.74756172     0.73890
C1856       C  0.68472232  0.66091338  0.70193023    -0.05990
C1857       C  0.81961988  0.78750699  0.64832241    -0.05550
N1858       N  0.84096818  0.68817560  0.78162244    -0.25080
N1859       N  0.72590093  0.78915852  0.65582578    -0.45840
H1860       H  0.79744563  0.65480425  0.63037150     0.07810
C1861       C  0.73513400  0.66030418  0.83678164    -0.05970
Cl1862     Cl  0.77455353  0.72535178  0.74394836    -0.48970
C1863       C  0.69523322  0.80355636  0.82449607     0.43560
H1864       H  0.88918055  0.65955514  0.77099314     0.07770
N1865       N  0.69107745  0.65990798  0.79472245    -0.45680
C1866       C  0.93107272  0.81841424  0.60019368     0.04080
C1867       C  0.89662649  0.80766606  0.61085220    -0.12070
C1868       C  0.87936905  0.82392672  0.64019880     0.01580
C1869       C  0.89464009  0.85371848  0.65625287    -0.10590
C1870       C  0.92714982  0.86705320  0.64380985     0.04080
C1871       C  0.94557619  0.84897894  0.61637788    -0.10010
H1872       H  0.88460667  0.78448859  0.59893244     0.09670
H1873       H  0.88240883  0.86507241  0.68023135     0.07200
H1874       H  0.97261197  0.85685358  0.61048891     0.07050
C1875       C  0.68772662  0.88887049  0.60969036     0.04080
C1876       C  0.65705991  0.90382770  0.62521585    -0.12070
C1877       C  0.63853474  0.88592464  0.65295664     0.01580
C1878       C  0.65124040  0.85344628  0.66570843    -0.10590
C1879       C  0.68198185  0.83855679  0.65121222     0.04080
C1880       C  0.69937194  0.85565183  0.62231943    -0.10010
H1881       H  0.64829047  0.92983326  0.61667819     0.09670
H1882       H  0.63726112  0.83974338  0.68725900     0.07200
H1883       H  0.72260615  0.84352904  0.61035779     0.07050
C1884       C  0.95042013  0.56030104  0.82480550     0.43410
N1885       N  0.98814768  0.52024171  0.81066220     0.02300
C1886       C  0.58532787  0.52233441  0.64920422    -0.05570
H1887       H  0.95001099  0.49798582  0.63301992     0.07790
C1888       C  0.96010297  0.88572783  0.70188053    -0.05930
Co1889     Co  0.52460081  0.53983637  0.74123770     0.74180
N1890       N  0.98443253  0.51159429  0.67737782    -0.25100
Co1891     Co  0.52323194  0.97308042  0.67704113     0.74070
C1892       C  0.94567470  0.89355993  0.66602895     0.43510
N1893       N  0.98407927  0.91570867  0.78850954     0.01920
N1894       N  0.98489363  0.93268738  0.67942184     0.02020
N1895       N  0.58570795  0.56277768  0.69404379    -0.45950
H1896       H  0.96022901  0.59089951  0.77161701     0.07780
N1897       N  0.98448042  0.53732091  0.70150495     0.02310
N1898       N  0.56207396  0.93453973  0.68010290     0.02050
C1899       C  0.60666258  0.90125716  0.66985098     0.43650
N1900       N  0.98494013  0.94123245  0.81285178    -0.24560
C1901       C  0.59257978  0.56133676  0.78478460    -0.05480
N1902       N  0.96697246  0.53089561  0.83741688    -0.45670
N1903       N  0.58881057  0.92970734  0.65723368    -0.45890
C1904       C  0.61094181  0.54827344  0.81735386     0.43430
N1905       N  0.56218688  0.53766942  0.70049161     0.02300
N1906       N  0.56227095  0.93730859  0.81271391    -0.24580
N1907       N  0.98755995  0.54207526  0.78249077    -0.25070
N1908       N  0.56160542  0.91307142  0.78713954     0.01940
H1909       H  0.59281950  0.94153151  0.86245906     0.07830
H1910       H  0.59461468  0.86692185  0.72070084     0.07860
N1911       N  0.56133059  0.51343415  0.67491082    -0.25120
N1912       N  0.98431405  0.91087762  0.70758816    -0.24740
N1913       N  0.56514825  0.51622271  0.80765400     0.02300
C1914       C  0.93837070  0.54670574  0.66853176     0.43700
C1915       C  0.95693084  0.93784388  0.83516112    -0.05990
N1916       N  0.56134520  0.91106424  0.70689530    -0.24730
H1917       H  0.95606129  0.86261018  0.71888202     0.07850
N1918       N  0.95724383  0.55914438  0.69710903    -0.45960
H1919       H  0.95065077  0.95509233  0.85761203     0.07830
C1920       C  0.60272220  0.89517182  0.82319614     0.43530
C1921       C  0.96419975  0.56780189  0.78866826    -0.05480
Co1922     Co  0.52516020  0.97873793  0.81195026     0.73820
N1923       N  0.95648021  0.89450741  0.79294191    -0.45670
C1924       C  0.60202360  0.55475759  0.66263300     0.43800
N1925       N  0.59233043  0.52034763  0.83010630    -0.45660
Co1926     Co  0.52270535  0.91213462  0.74767338     0.73890
C1927       C  0.58848128  0.88879769  0.70269596    -0.05990
C1928       C  0.95647461  0.51529252  0.65536761    -0.05550
N1929       N  0.56462972  0.53980223  0.78092575    -0.25080
N1930       N  0.96290907  0.92251241  0.65314947    -0.45840
H1931       H  0.58952075  0.50871243  0.62375477     0.07810
C1932       C  0.58719543  0.92793883  0.83728004    -0.05970
Cl1933     Cl  0.52385484  0.97596138  0.74448427    -0.48970
C1934       C  0.93812411  0.90678236  0.82183407     0.43560
H1935       H  0.59901293  0.58328604  0.76696510     0.07770
N1936       N  0.58481575  0.88744938  0.79260734    -0.45680
C1937       C  0.69098273  0.51947307  0.93717306     0.24550
C1938       C  0.70894197  0.53921878  0.91001863    -0.23560
C1939       C  0.74636063  0.53812162  0.90910019     0.19460
C1940       C  0.76516929  0.51765937  0.93418858     0.24490
C1941       C  0.74719001  0.49639745  0.95987059    -0.23500
C1942       C  0.70994518  0.49776961  0.96149644     0.19390
F1943       F  0.69201512  0.97717874  0.98575190    -0.13460
F1944       F  0.65507100  0.52079499  0.93992373    -0.15820
F1945       F  0.80118266  0.51683144  0.93212826    -0.15820
F1946       F  0.76493660  0.55498559  0.88242630    -0.13460
C1947       C  0.81423162  0.91828274  0.96499532     0.24550
C1948       C  0.78560522  0.94125133  0.95554970    -0.23560
C1949       C  0.77538191  0.93973330  0.91800093     0.19460
C1950       C  0.79778779  0.92550839  0.89153988     0.24490
C1951       C  0.82990078  0.90992278  0.90156928    -0.23500
C1952       C  0.83721443  0.90500937  0.93846660     0.19390
F1953       F  0.86466059  0.88394220  0.94886596    -0.13460
F1954       F  0.81549018  0.90052361  0.99679401    -0.15820
F1955       F  0.78781333  0.92654797  0.85595447    -0.15820
F1956       F  0.74312636  0.95115920  0.90636012    -0.13460
C1957       C  0.56951541  0.71541331  0.56642188     0.24550
C1958       C  0.54811446  0.70183870  0.53843914    -0.23560
C1959       C  0.54912446  0.66526020  0.53165360     0.19460
C1960       C  0.57291061  0.64332935  0.55057506     0.24490
C1961       C  0.59459079  0.65696631  0.57852412    -0.23500
C1962       C  0.59187782  0.69327487  0.58664763     0.19390
F1963       F  0.60979503  0.70741241  0.61516327    -0.13460
F1964       F  0.56888623  0.75040036  0.57426305    -0.15820
F1965       F  0.57471973  0.60871458  0.54136940    -0.15820
F1966       F  0.52667714  0.65053232  0.50711927    -0.13460
C1967       C  0.00326588  0.78750129  0.53416631     0.24550
C1968       C  0.00098221  0.75053430  0.53756539    -0.23560
C1969       C  0.97524590  0.73600119  0.56087755     0.19460
C1970       C  0.95242393  0.75777562  0.58071612     0.24490
C1971       C  0.95391395  0.79501532  0.57691624    -0.23500
C1972       C  0.97949491  0.80942798  0.55281921     0.19390
F1973       F  0.98153709  0.84480949  0.54697686    -0.13460
F1974       F  0.52892190  0.80245458  0.51312592    -0.15820
F1975       F  0.92995625  0.74201516  0.60475835    -0.15820
F1976       F  0.97199943  0.70040043  0.56426376    -0.13460
C1977       C  0.56960534  0.81090201  0.93483958     0.24550
C1978       C  0.59528128  0.79546110  0.91181778    -0.23560
C1979       C  0.59650652  0.75807849  0.91018178     0.19460
C1980       C  0.57378077  0.73727887  0.93163878     0.24490
C1981       C  0.54772670  0.75296576  0.95347516    -0.23500
C1982       C  0.54492649  0.78995160  0.95348389     0.19390
F1983       F  0.51725254  0.80595167  0.97015656    -0.13460
F1984       F  0.56796401  0.84640823  0.93940911    -0.15820
F1985       F  0.57666301  0.70156328  0.93037500    -0.15820
F1986       F  0.61832822  0.74121587  0.88660081    -0.13460
C1987       C  0.95774163  0.69654206  0.90474021     0.24550
C1988       C  0.95604579  0.65995869  0.91232289    -0.23560
C1989       C  0.97733145  0.64638040  0.94086132     0.19460
C1990       C  0.99956045  0.66875640  0.96110502     0.24490
C1991       C  0.99998410  0.70542737  0.95425797    -0.23500
C1992       C  0.97893356  0.71888533  0.92570294     0.19390
F1993       F  0.97869780  0.75403319  0.91806793    -0.13460
F1994       F  0.93997258  0.71082580  0.87598850    -0.15820
F1995       F  0.02095149  0.65450615  0.98711021    -0.15820
F1996       F  0.97656095  0.61143871  0.94935967    -0.13460
C1997       C  0.77838682  0.51968828  0.56037185     0.24550
C1998       C  0.79507805  0.49916264  0.53359247    -0.23560
C1999       C  0.83234462  0.49963129  0.53107273     0.19460
C2000       C  0.85241103  0.52064794  0.55462885     0.24490
C2001       C  0.83569653  0.54020607  0.58234597    -0.23500
C2002       C  0.79837866  0.53938364  0.58486480     0.19390
F2003       F  0.78108899  0.55620761  0.61219295    -0.13460
F2004       F  0.74245802  0.01987033  0.56349452    -0.15820
F2005       F  0.88821822  0.52158008  0.55047387    -0.15820
F2006       F  0.84942314  0.47864365  0.50691182    -0.13460
C2007       C  0.74646602  0.90989157  0.58562387     0.24550
C2008       C  0.70918747  0.90893859  0.58247460    -0.23560
C2009       C  0.69287293  0.92842699  0.55414966     0.19460
C2010       C  0.71329328  0.94935522  0.53048332     0.24490
C2011       C  0.75052828  0.94983968  0.53357766    -0.23500
C2012       C  0.76680951  0.92945717  0.56104761     0.19390
F2013       F  0.80268943  0.92932826  0.56480721    -0.13460
F2014       F  0.76338344  0.89333950  0.61363435    -0.15820
F2015       F  0.69657202  0.97024497  0.50564364    -0.15820
F2016       F  0.65712844  0.92748959  0.54947616    -0.13460
C2017       C  0.71768500  0.51717118  0.09496635     0.24550
C2018       C  0.70619933  0.54880688  0.07905972    -0.23560
C2019       C  0.72203879  0.55959038  0.04614463     0.19460
C2020       C  0.74642317  0.53742506  0.02816941     0.24490
C2021       C  0.75311433  0.50240186  0.04077184    -0.23500
C2022       C  0.74092727  0.49477360  0.07676499     0.19390
F2023       F  0.75251141  0.96693684  0.09660183    -0.13460
F2024       F  0.70770427  0.50850070  0.12950982    -0.15820
F2025       F  0.76552820  0.55169355  0.00047711    -0.15820
F2026       F  0.71442174  0.59180365  0.03166238    -0.13460
C2027       C  0.60569865  0.68173468  0.43616337     0.24550
C2028       C  0.58896204  0.66216973  0.40845083    -0.23560
C2029       C  0.55169441  0.66335092  0.40558710     0.19460
C2030       C  0.53169591  0.68308190  0.42994210     0.24490
C2031       C  0.54830935  0.70326929  0.45706308    -0.23500
C2032       C  0.58556551  0.70261656  0.45986805     0.19390
F2033       F  0.60250172  0.72303605  0.48467325    -0.13460
F2034       F  0.64150555  0.68074439  0.44027903    -0.15820
F2035       F  0.49578714  0.68295335  0.42655020    -0.15820
F2036       F  0.53444880  0.64662268  0.37813735    -0.13460
C2037       C  0.82009371  0.55773001  0.43870184     0.24550
C2038       C  0.84324388  0.54371657  0.41225337    -0.23560
C2039       C  0.84241487  0.50694079  0.40606847     0.19460
C2040       C  0.82002661  0.48488625  0.42642425     0.24490
C2041       C  0.79696618  0.49890365  0.45271167    -0.23500
C2042       C  0.79655771  0.53573445  0.45791279     0.19390
F2043       F  0.77289296  0.55058974  0.48110303    -0.13460
F2044       F  0.82016210  0.59281454  0.44606596    -0.15820
F2045       F  0.82092395  0.94956050  0.42035768    -0.15820
F2046       F  0.86215601  0.49220124  0.37921616    -0.13460
C2047       C  0.53648068  0.78960162  0.04448461     0.24550
C2048       C  0.54786528  0.75690791  0.03149929    -0.23560
C2049       C  0.58264196  0.74597319  0.03877612     0.19460
C2050       C  0.60326473  0.76409485  0.06427078     0.24490
C2051       C  0.59203947  0.79729881  0.07823458    -0.23500
C2052       C  0.55963584  0.81104483  0.06417791     0.19390
F2053       F  0.54994578  0.84522241  0.06867463    -0.13460
F2054       F  0.50284111  0.80093341  0.03806516    -0.15820
F2055       F  0.63241987  0.74693976  0.07669951    -0.15820
F2056       F  0.59440732  0.71458285  0.02574694    -0.13460
C2057       C  0.99382906  0.67335567  0.09248873     0.24550
C2058       C  0.95913398  0.66424766  0.08293129    -0.23560
C2059       C  0.94387805  0.67964273  0.05161447     0.19460
C2060       C  0.96349073  0.70328865  0.02994038     0.24490
C2061       C  0.99966786  0.70996463  0.03758519    -0.23500
C2062       C  0.01393499  0.69531912  0.07015460     0.19390
F2063       F  0.54737307  0.70204871  0.08153487    -0.13460
F2064       F  0.00811103  0.66199092  0.12452681    -0.15820
F2065       F  0.94658123  0.72043332  0.00236923    -0.15820
F2066       F  0.90988058  0.67201975  0.04216444    -0.13460
C2067       C  0.72725098  0.96428169  0.42601910     0.24550
C2068       C  0.75004819  0.95010626  0.45266752    -0.23560
C2069       C  0.75046340  0.91323493  0.45819676     0.19460
C2070       C  0.72722287  0.89131757  0.43880637     0.24490
C2071       C  0.70423197  0.90554959  0.41212050    -0.23500
C2072       C  0.70505761  0.94235895  0.40566505     0.19390
F2073       F  0.68543269  0.95725720  0.37857284    -0.13460
F2074       F  0.72636999  0.99965204  0.41967111    -0.15820
F2075       F  0.72722621  0.85614247  0.44625507    -0.15820
F2076       F  0.77382288  0.89830177  0.48190038    -0.13460
C2077       C  0.85685726  0.93383038  0.05764882     0.24550
C2078       C  0.84333347  0.90544765  0.07899344    -0.23560
C2079       C  0.80608866  0.89992301  0.07888681     0.19460
C2080       C  0.78384170  0.92081032  0.05719777     0.24490
C2081       C  0.79717920  0.95081946  0.03903064    -0.23500
C2082       C  0.83387719  0.95727382  0.03955530     0.19390
F2083       F  0.84762957  0.98477523  0.02021850    -0.13460
F2084       F  0.89232059  0.93841978  0.05304354    -0.15820
F2085       F  0.74878723  0.91255997  0.05488773    -0.15820
F2086       F  0.79042582  0.87546382  0.10078787    -0.13460
C2087       C  0.94619215  0.77160117  0.43506727     0.24550
C2088       C  0.96276824  0.79245659  0.40795094    -0.23560
C2089       C  0.00017143  0.79378613  0.40685407     0.19460
C2090       C  0.02031520  0.77449832  0.43185813     0.24490
C2091       C  0.00375479  0.75238230  0.45762485    -0.23500
C2092       C  0.96649310  0.75103573  0.45900986     0.19390
F2093       F  0.94972987  0.72834453  0.48208567    -0.13460
F2094       F  0.91027915  0.77058521  0.43810111    -0.15820
F2095       F  0.55629011  0.77632204  0.42998515    -0.15820
F2096       F  0.01751672  0.81207373  0.38030353    -0.13460
loop_ 
_geom_bond_atom_site_label_1 
_geom_bond_atom_site_label_2 
_geom_bond_distance 
_geom_bond_site_symmetry_2 
_ccdc_geom_bond_type 
C1            C2   1.405       .  A
C1            C6   1.404       .  A
C1          C516   1.487       .  S
C2            C3   1.402       .  A
C2            H7   1.081       .  S
C3            C4   1.401       .  A
C3          C176   1.473       .  S
C4            C5   1.400       .  A
C4            H8   1.082       .  S
C5            C6   1.401       .  A
C5           C37   1.473       .  S
C6            H9   1.083       .  S
C10          C11   1.412       .  A
C10          C15   1.417       .  A
C10         C506   1.508       .  S
C11          C12   1.400       .  A
C11          H16   1.081       .  S
C12          C13   1.396       .  A
C12          C67   1.467       .  S
C13          C14   1.400       .  A
C13          H17   1.084       .  S
C14          C15   1.405       .  A
C14         C134   1.474       .  S
C15          H18   1.081       .  S
C19          C20   1.409       .  A
C19          C24   1.411       .  A
C19         C499   1.497       .  S
C20          C21   1.403       .  A
C20          H25   1.083       .  S
C21          C22   1.402       .  A
C21         C162   1.473       .  S
C22          C23   1.404       .  A
C22          H26   1.084       .  S
C23          C24   1.403       .  A
C23          C87   1.474       .  S
C24          H27   1.083       .  S
C28          C29   1.392       .  A
C28          C33   1.402       .  A
C28         C486   1.479       .  S
C29          C30   1.401       .  A
C29          H34   1.080       .  S
C30          C31   1.406       .  A
C30         C156   1.473       .  S
C31          C32   1.408       .  A
C31          H35   1.083       .  S
C32          C33   1.405       .  A
C32          C77   1.479       .  S
C33          H36   1.082       .  S
C37          C74   1.461       .  S
C37        N1103   1.349       .  A
N38          N55   1.322       .  A
N38        N1108   1.320       .  A
N38         Co75   2.072   1_655  S
C39          C77   1.461       .  S
C39        H1132   1.081       .  S
C39        N1112   1.337       .  A
H40        C1129   1.081       .  S
C41          C45   1.459       .  S
C41          H70   1.080       .  S
C41          N65   1.335       .  A
Co42         N60   2.088       .  S
Co42         N50   2.068       .  S
Co42        N606   2.066       .  S
Co42        N582   2.095       .  S
Co42      Cl1134   2.427       .  S
N43        C1129   1.345       .  A
N43        N1098   1.318       .  A
N43         Co44   2.093   1_655  S
Co44         N47   2.076       .  S
Co44        N588   2.077   1_455  S
Co44        N575   2.101       .  S
Co44        Cl86   2.473       .  S
C45          C92   1.474       .  S
C45          N83   1.350       .  A
N46          N53   1.318       .  A
N46          N76   1.321       .  A
N46         Co79   2.072       .  S
N47          N65   1.320       .  A
N47          N83   1.325       .  A
N48          C77   1.352       .  A
N48          N58   1.326       .  A
H49          C74   1.081       .  S
N50          N71   1.321       .  A
N50        N1091   1.318       .  A
N51          N69   1.320       .  A
N51          N56   1.330       .  A
N51        Co568   2.101   1_545  S
C52          C80   1.457       .  S
C52         C119   1.479       .  S
C52          N56   1.354       .  A
N53          C68   1.349       .  A
N53         Co75   2.104       .  S
C54          C57   1.452       .  S
C54          H88   1.082       .  S
C54          N82   1.333       .  A
N55        C1085   1.349       .  A
C57         C101   1.471       .  S
C57          N78   1.355       .  A
N58        N1112   1.321       .  A
N58        Co566   2.095   1_545  S
N59          C85   1.335       .  A
N59          N61   1.321       .  A
N59        Co599   2.068   1_545  S
N60          C74   1.339       .  A
N60        N1086   1.320       .  A
N61          N89   1.324       .  A
N61        Co603   2.094   1_545  S
H62          C85   1.081       .  S
H63          C80   1.082       .  S
N64        C1087   1.337       .  A
N64        N1106   1.321       .  A
N64        Co568   2.077   1_645  S
N65         Co79   2.081       .  S
N66        N1126   1.330       .  A
N66        N1130   1.319       .  A
N66        Co599   2.101   1_645  S
C67          C81   1.464       .  S
C67          N71   1.345       .  A
C68          C87   1.471       .  S
C68          H72   1.081       .  S
N69          C80   1.339       .  A
N69        Co603   2.081   1_545  S
C73          C85   1.457       .  S
C73         C110   1.474       .  S
C73          N89   1.353       .  A
Co75        N583   2.068       .  S
Co75        N590   2.101   1_455  S
Co75        Cl86   2.477       .  S
N76          C87   1.344       .  A
N78        N1114   1.330       .  A
Co79        N585   2.094       .  S
Co79        N593   2.081       .  S
Co79        Cl86   2.426       .  S
C81        H1088   1.081       .  S
C81        N1091   1.345       .  A
N82        N1114   1.319       .  A
N82        Co566   2.066   1_545  S
H84        C1087   1.081   1_455  S
Cl86      Co1090   2.427   1_455  S
C90          C91   1.419       .  A
C90          C95   1.419       .  A
C90         C479   1.520       .  S
C91          C92   1.400       .  A
C91          H96   1.074       .  S
C92          C93   1.391       .  A
C93          C94   1.393       .  A
C93          H97   1.078       .  S
C94          C95   1.404       .  A
C94         C141   1.476       .  S
C95          H98   1.078       .  S
C99         C100   1.413       .  A
C99         C104   1.411       .  A
C99         C466   1.498       .  S
C100        C101   1.404       .  A
C100        H105   1.083       .  S
C101        C102   1.399       .  A
C102        C103   1.397       .  A
C102        H106   1.085       .  S
C103        C104   1.403       .  A
C103        C126   1.468       .  S
C104        H107   1.083       .  S
C108        C109   1.404       .  A
C108        C113   1.405       .  A
C108        C456   1.487       .  S
C109        C110   1.401       .  A
C109        H114   1.081       .  S
C110        C111   1.398       .  A
C111        C112   1.402       .  A
C111        H115   1.082       .  S
C112        C113   1.405       .  A
C112        C146   1.472       .  S
C113        H116   1.083       .  S
C117        C118   1.413       .  A
C117        C122   1.406       .  A
C117        C446   1.491       .  S
C118        C119   1.405       .  A
C118        H123   1.084       .  S
C119        C120   1.401       .  A
C120        C121   1.403       .  A
C120        H124   1.085       .  S
C121        C122   1.405       .  A
C121        C166   1.470       .  S
C122        H125   1.084       .  S
C126        C163   1.453       .  S
C126        N144   1.353       .  A
N127        N144   1.328       .  A
N127        N149   1.319       .  A
N127       Co164   2.095       .  S
C128        C166   1.468       .  S
C128        H173   1.081       .  S
C128        N153   1.347       .  A
H129        C170   1.080       .  S
C130        C134   1.453       .  S
C130        H159   1.082       .  S
C130        N154   1.334       .  A
Co131       N149   2.068       .  S
Co131       N139   2.090       .  S
Co131       N171   2.084       .  S
Co131       N147   2.070       .  S
Co131      Cl175   2.425       .  S
N132        C170   1.331       .  A
N132        N139   1.320       .  A
N132       Co133   2.064       .  S
Co133       N136   2.103       .  S
Co133       N153   2.098       .  S
Co133       N140   2.073       .  S
Co133      Cl175   2.476       .  S
C134        N172   1.356       .  A
N135        N142   1.319       .  A
N135        N165   1.323       .  A
N135       Co168   2.085       .  S
N136        N154   1.318       .  A
N136        N172   1.330       .  A
N137        C166   1.344       .  A
N137        N147   1.320       .  A
H138        C163   1.082       .  S
N139        N160   1.326       .  A
N140        N158   1.320       .  A
N140        N145   1.325       .  A
C141        C169   1.462       .  S
C141        N145   1.350       .  A
N142        C157   1.339       .  A
N142       Co164   2.072       .  S
C143        C146   1.460       .  S
C143        H177   1.081       .  S
C143        N171   1.337       .  A
C146        N167   1.350       .  A
N147        N153   1.319       .  A
N148        C174   1.346       .  A
N148        N150   1.319       .  A
N148       Co164   2.097       .  S
N149        C163   1.336       .  A
N150        N178   1.323       .  A
N150       Co168   2.078       .  S
H151        C174   1.081       .  S
H152        C169   1.081       .  S
N154       Co168   2.068       .  S
N155        N167   1.324       .  A
N155        N171   1.320       .  A
N155       Co164   2.074       .  S
C156        C170   1.458       .  S
C156        N160   1.352       .  A
C157        C176   1.460       .  S
C157        H161   1.081       .  S
N158        C169   1.334       .  A
N158       Co168   2.085       .  S
C162        C174   1.465       .  S
C162        N178   1.347       .  A
Co164      Cl175   2.474       .  S
N165        C176   1.349       .  A
Co168      Cl175   2.422       .  S
C179        C180   1.372       .  D
C179        C439   1.493       .  S
C179        C950   1.493       .  S
C180        C496   1.500       .  S
C180        C993   1.501       .  S
C181        C182   1.377   1_556  D
C181        C409   1.499       .  S
C181       C1467   1.501   1_455  S
C182        C476   1.492       .  S
C182       C1537   1.511   1_455  S
C183        C184   1.370       .  D
C183        C459   1.493       .  S
C183       C1567   1.489       .  S
C184        C386   1.500       .  S
C184       C1444   1.499       .  S
C185        C186   1.399   1_554  D
C185        C509   1.484       .  S
C185        C973   1.547       .  S
C186        C376   1.562       .  S
C186        C893   1.493       .  S
C187        C188   1.403       .  A
C187        C192   1.397       .  A
C187        C379   1.471       .  S
C188        C189   1.407       .  A
C188        H193   1.083       .  S
C189        C190   1.403       .  A
C189        C362   1.475       .  S
C190        C191   1.400       .  A
C190        H194   1.082       .  S
C191        C192   1.399       .  A
C191        C241   1.469       .  S
C192        H195   1.084       .  S
C196        C197   1.414       .  A
C196        C201   1.413       .  A
C196        C416   1.501       .  S
C197        C198   1.404       .  A
C197        H202   1.083       .  S
C198        C199   1.397       .  A
C198        C261   1.473       .  S
C199        C200   1.399       .  A
C199        H203   1.085       .  S
C200        C201   1.406       .  A
C200        C312   1.470       .  S
C201        H204   1.083       .  S
C205        C206   1.408       .  A
C205        C210   1.406       .  A
C205        C366   1.492       .  S
C206        C207   1.406       .  A
C206        H211   1.083       .  S
C207        C208   1.401       .  A
C207        C332   1.476       .  S
C208        C209   1.399       .  A
C208        H212   1.082       .  S
C209        C210   1.402       .  A
C209        C277   1.475       .  S
C210        H213   1.081       .  S
C214        C215   1.412       .  A
C214        C219   1.413       .  A
C214        C406   1.505       .  S
C215        C216   1.400       .  A
C215        H220   1.082       .  S
C216        C217   1.400       .  A
C216        C348   1.469       .  S
C217        C218   1.402       .  A
C217        H221   1.084       .  S
C218        C219   1.405       .  A
C218        C291   1.473       .  S
C219        H222   1.082       .  S
C223        C224   1.412       .  A
C223        C228   1.409       .  A
C223        C389   1.498       .  S
C224        C225   1.404       .  A
C224        H229   1.083       .  S
C225        C226   1.400       .  A
C225        C256   1.473       .  S
C226        C227   1.400       .  A
C226        H230   1.085       .  S
C227        C228   1.402       .  A
C227        C352   1.467       .  S
C228        H231   1.083       .  S
C232        C233   1.401       .  A
C232        C237   1.400       .  A
C232        C429   1.488       .  S
C233        C234   1.406       .  A
C233        H238   1.081       .  S
C234        C235   1.404       .  A
C234        C342   1.476       .  S
C235        C236   1.404       .  A
C235        H239   1.083       .  S
C236        C237   1.404       .  A
C236        C281   1.475       .  S
C237        H240   1.080       .  S
C241        C278   1.460       .  S
C241        N259   1.348       .  A
N242        N259   1.321       .  A
N242        N264   1.320       .  A
N242       Co279   2.069       .  S
C243        C281   1.458       .  S
C243        H288   1.081       .  S
C243        N268   1.333       .  A
H244        C285   1.082       .  S
C245        C249   1.461       .  S
C245        H274   1.081       .  S
C245        N269   1.335       .  A
Co246       N264   2.086       .  S
Co246       N254   2.077       .  S
Co246       N286   2.076       .  S
Co246       N262   2.093       .  S
Co246      Cl290   2.429       .  S
N247        C285   1.348       .  A
N247        N254   1.319       .  A
N247       Co248   2.095       .  S
Co248       N251   2.069       .  S
Co248       N268   2.066       .  S
Co248       N255   2.098       .  S
Co248      Cl290   2.473       .  S
C249        C307   1.472       .  S
C249        N287   1.349       .  A
N250        N257   1.319       .  A
N250        N280   1.322       .  A
N250       Co283   2.080       .  S
N251        N269   1.320       .  A
N251        N287   1.323       .  A
N252        C281   1.353       .  A
N252        N262   1.326       .  A
H253        C278   1.081       .  S
N254        N275   1.321       .  A
N255        N273   1.319       .  A
N255        N260   1.328       .  A
C256        C284   1.456       .  S
C256        N260   1.354       .  A
N257        C272   1.347       .  A
N257       Co279   2.095       .  S
C258        C261   1.455       .  S
C258        H292   1.082       .  S
C258        N286   1.336       .  A
C261        N282   1.353       .  A
N262        N268   1.320       .  A
N263        C289   1.338       .  A
N263        N265   1.320       .  A
N263       Co279   2.071       .  S
N264        C278   1.339       .  A
N265        N293   1.323       .  A
N265       Co283   2.089       .  S
H266        C289   1.081       .  S
H267        C284   1.082       .  S
N269       Co283   2.083       .  S
N270        N282   1.329       .  A
N270        N286   1.320       .  A
N270       Co279   2.096       .  S
C271        C285   1.466       .  S
C271        C296   1.472       .  S
C271        N275   1.346       .  A
C272        C291   1.466       .  S
C272        H276   1.081       .  S
N273        C284   1.337       .  A
N273       Co283   2.077       .  S
C277        C289   1.460       .  S
C277        N293   1.351       .  A
Co279      Cl290   2.473       .  S
N280        C291   1.348       .  A
Co283      Cl290   2.427       .  S
C294        C295   1.414       .  A
C294        C299   1.414       .  A
C294        C399   1.506       .  S
C295        C296   1.404       .  A
C295        H300   1.082       .  S
C296        C297   1.399       .  A
C297        C298   1.399       .  A
C297        H301   1.085       .  S
C298        C299   1.405       .  A
C298        C320   1.473       .  S
C299        H302   1.082       .  S
C303        C304   1.409       .  A
C303        C308   1.407       .  A
C303        C436   1.488       .  S
C304        C305   1.404       .  A
C304        H309   1.083       .  S
C305        C306   1.397       .  A
C305        C327   1.473       .  S
C306        C307   1.395       .  A
C306        H310   1.079       .  S
C307        C308   1.400       .  A
C308        H311   1.083       .  S
C312        C349   1.449       .  S
C312        N330   1.355       .  A
N313        N330   1.330       .  A
N313        N335   1.319       .  A
N313      Co1922   2.101   1_545  S
C314        C352   1.467       .  S
C314        H359   1.081       .  S
C314        N339   1.347       .  A
H315        C356   1.081   1_565  S
C316        C320   1.451       .  S
C316        H345   1.082       .  S
C316        N340   1.336       .  A
Co317       N357   2.095       .  S
Co317       N333   2.061       .  S
Co317      N1383   2.060   1_455  S
Co317      N1373   2.102   1_455  S
Co317      Cl885   2.421   1_545  S
N318        C356   1.333       .  A
N318        N325   1.321       .  A
N318      Co1891   2.065   1_545  S
Co319       N326   2.069       .  S
Co319      N1890   2.065   1_455  S
Co319      N1370   2.104   1_455  S
Co319       N863   2.097       .  S
Co319      Cl361   2.477       .  S
C320        N358   1.356       .  A
N321        N328   1.321       .  A
N321        N351   1.322       .  A
N321      Co1402   2.093       .  S
N322        N340   1.318       .  A
N322        N358   1.329       .  A
N322      Co1367   2.104       .  S
N323        C352   1.343       .  A
N323        N333   1.319       .  A
H324        C349   1.082       .  S
N325        N346   1.327       .  A
N325      Co1365   2.102       .  S
N326        N344   1.320       .  A
N326        N331   1.324       .  A
C327        C355   1.461       .  S
C327        N331   1.349       .  A
N328        C343   1.341       .  A
N328      Co1398   2.076       .  S
C329        C332   1.463       .  S
C329        H363   1.081       .  S
C329        N357   1.339       .  A
C332        N353   1.349       .  A
N333        N339   1.318       .  A
N334        C360   1.347       .  A
N334        N336   1.317       .  A
N334       Co350   2.102       .  S
N335        C349   1.334       .  A
N335      Co1365   2.060       .  S
N336        N364   1.320       .  A
N336       Co354   2.060       .  S
H337        C360   1.081       .  S
H338        C355   1.080       .  S
N339       Co843   2.097   1_545  S
N340      Co1402   2.062       .  S
N341        N353   1.324       .  A
N341        N357   1.321       .  A
N341       Co874   2.074   1_545  S
C342        C356   1.457       .  S
C342        N346   1.354       .  A
C343        C362   1.460       .  S
C343        H347   1.081       .  S
N344        C355   1.335       .  A
N344       Co354   2.087       .  S
C348        C360   1.469       .  S
C348        N364   1.343       .  A
Co350      N1885   2.101   1_455  S
Co350      N1376   2.076   1_455  S
Co350       N865   2.074       .  S
Co350      Cl361   2.478       .  S
N351        C362   1.351       .  A
Co354      N1369   2.093   1_455  S
Co354      N1388   2.062   1_455  S
Co354      Cl361   2.419       .  S
Cl361      Co841   2.421       .  S
C365        C366   1.413       .  A
C365        C370   1.404   1_545  A
C365        F372   1.357       .  S
C366        C367   1.410       .  A
C367        C368   1.392       .  A
C367        F374   1.358       .  S
C368        C369   1.408   1_545  A
C368        F373   1.359       .  S
C369        C370   1.405       .  A
C369        C710   1.494       .  S
C370        F895   1.357       .  S
F371        C894   1.357       .  S
C375        C376   1.427       .  A
C375        C380   1.399       .  A
C375        F382   1.343       .  S
C376        C377   1.431       .  A
C377        C378   1.397       .  A
C377        F384   1.357       .  S
C378        C379   1.394       .  A
C378        F383   1.358       .  S
C379        C380   1.392       .  A
C380        F381   1.359       .  S
C385        C386   1.405       .  A
C385        C390   1.398       .  A
C385        F392   1.358       .  S
C386        C387   1.410       .  A
C387        C388   1.402       .  A
C387        F394   1.357       .  S
C388        C389   1.411       .  A
C388        F393   1.358       .  S
C389        C390   1.413       .  A
C390        F391   1.358       .  S
C395        C396   1.407       .  A
C395        C400   1.403       .  A
C395       F1450   1.358       .  S
C396        C397   1.402       .  A
C396       C1232   1.499       .  S
C397        C398   1.399       .  A
C397        F404   1.358       .  S
C398        C399   1.417       .  A
C398        F403   1.357       .  S
C399        C400   1.414       .  A
C400        F401   1.357       .  S
F402       C1443   1.358       .  S
C405        C406   1.414       .  A
C405        C410   1.397       .  A
C405        F412   1.357       .  S
C406        C407   1.418       .  A
C407        C408   1.401       .  A
C407        F414   1.357       .  S
C408        C409   1.402       .  A
C408        F413   1.358       .  S
C409        C410   1.404       .  A
C410        F411   1.354       .  S
C415        C416   1.412       .  A
C415        C420   1.397       .  A
C415        F422   1.358       .  S
C416        C417   1.412       .  A
C417        C418   1.406       .  A
C417        F424   1.357       .  S
C418        C419   1.409       .  A
C418        F423   1.357       .  S
C419        C420   1.406       .  A
C419       C1229   1.501       .  S
C420        F421   1.358       .  S
C425        C426   1.406   1_545  A
C425        C430   1.392       .  A
C425        F956   1.358       .  S
C426        C427   1.407       .  A
C426        C703   1.493       .  S
C427        C428   1.400   1_565  A
C427        F434   1.357       .  S
C428        C429   1.411       .  A
C428        F433   1.358       .  S
C429        C430   1.409       .  A
C430        F431   1.358       .  S
F432        C949   1.358       .  S
C435        C436   1.409       .  A
C435        C440   1.392       .  A
C435        F442   1.358       .  S
C436        C437   1.411       .  A
C437        C438   1.401       .  A
C437        F444   1.358       .  S
C438        C439   1.407       .  A
C438        F443   1.357       .  S
C439        C440   1.405       .  A
C440        F441   1.358       .  S
C445        C446   1.397       .  A
C445        C450   1.393   1_545  A
C445        F452   1.359       .  S
C446        C447   1.404       .  A
C447        C448   1.411       .  A
C447        F454   1.357       .  S
C448        C449   1.424       .  A
C448        F453   1.354       .  S
C449        C450   1.425   1_545  A
C449        C709   1.547   1_545  S
C450        F975   1.348       .  S
F451        C974   1.348       .  S
C455        C456   1.410       .  A
C455        C460   1.403       .  A
C455        F462   1.357       .  S
C456        C457   1.408       .  A
C457        C458   1.391       .  A
C457        F464   1.358       .  S
C458        C459   1.406       .  A
C458        F463   1.358   1_455  S
C459        C460   1.407       .  A
C460        F461   1.357       .  S
C465        C466   1.411       .  A
C465        C470   1.402       .  A
C465        F472   1.358       .  S
C466        C467   1.413       .  A
C467        C468   1.398   1_545  A
C467        F474   1.358   1_545  S
C468        C469   1.405       .  A
C468        F997   1.358       .  S
C469        C470   1.409   1_565  A
C469        C704   1.501       .  S
C470        F471   1.357       .  S
F473        C992   1.358       .  S
C475        C476   1.397       .  A
C475        C480   1.396       .  A
C475        F482   1.358       .  S
C476        C477   1.399       .  A
C477        C478   1.399       .  A
C477        F484   1.359       .  S
C478        C479   1.425       .  A
C478        F483   1.353       .  S
C479        C480   1.422       .  A
C480        F481   1.356       .  S
C485        C486   1.397       .  A
C485        C490   1.388       .  A
C485        F492   1.359       .  S
C486        C487   1.407       .  A
C487        C488   1.403       .  A
C487        F494   1.358       .  S
C488        C489   1.414       .  A
C488        F493   1.356       .  S
C489        C490   1.419       .  A
C489       C1230   1.511       .  S
C490       F1539   1.351       .  S
F491       C1538   1.351       .  S
C495        C496   1.405       .  A
C495        C500   1.398       .  A
C495        F502   1.358       .  S
C496        C497   1.409       .  A
C497        C498   1.403       .  A
C497        F504   1.357       .  S
C498        C499   1.411       .  A
C498        F503   1.358       .  S
C499        C500   1.412       .  A
C500        F501   1.358       .  S
C505        C506   1.419       .  A
C505        C510   1.403       .  A
C505        F512   1.357       .  S
C506        C507   1.418       .  A
C507        C508   1.397       .  A
C507        F514   1.356       .  S
C508        C509   1.406       .  A
C508        F513   1.359       .  S
C509        C510   1.404       .  A
C510        F511   1.358       .  S
C515        C516   1.411       .  A
C515        C520   1.397       .  A
C515        F522   1.358       .  S
C516        C517   1.410       .  A
C517        C518   1.393       .  A
C517        F524   1.358       .  S
C518        C519   1.404       .  A
C518       F1571   1.358       .  S
C519        C520   1.405       .  A
C519       C1231   1.489       .  S
C520        F521   1.357       .  S
F523       C1566   1.358       .  S
C525        C526   1.405       .  A
C525        C530   1.404       .  A
C525       C1040   1.487       .  S
C526        C527   1.402       .  A
C526        H531   1.081       .  S
C527        C528   1.401       .  A
C527        C700   1.473       .  S
C528        C529   1.400       .  A
C528        H532   1.082       .  S
C529        C530   1.401       .  A
C529        C561   1.473       .  S
C530        H533   1.083       .  S
C534        C535   1.412       .  A
C534        C539   1.417       .  A
C534       C1030   1.508       .  S
C535        C536   1.400       .  A
C535        H540   1.081       .  S
C536        C537   1.396       .  A
C536        C591   1.467       .  S
C537        C538   1.400       .  A
C537        H541   1.084       .  S
C538        C539   1.405       .  A
C538        C658   1.474       .  S
C539        H542   1.081       .  S
C543        C544   1.409       .  A
C543        C548   1.411       .  A
C543       C1023   1.497       .  S
C544        C545   1.403       .  A
C544        H549   1.083       .  S
C545        C546   1.402       .  A
C545        C686   1.473       .  S
C546        C547   1.404       .  A
C546        H550   1.084       .  S
C547        C548   1.403       .  A
C547        C611   1.474       .  S
C548        H551   1.083       .  S
C552        C553   1.392       .  A
C552        C557   1.402       .  A
C552       C1010   1.479       .  S
C553        C554   1.401       .  A
C553        H558   1.080       .  S
C554        C555   1.406       .  A
C554        C680   1.473       .  S
C555        C556   1.408       .  A
C555        H559   1.083       .  S
C556        C557   1.405       .  A
C556        C601   1.479       .  S
C557        H560   1.082       .  S
C561        C598   1.461       .  S
C561       N1627   1.349       .  A
N562        N579   1.322       .  A
N562       N1632   1.320       .  A
N562       Co599   2.072   1_655  S
C563        C601   1.461       .  S
C563       H1656   1.081       .  S
C563       N1636   1.337       .  A
H564       C1653   1.081       .  S
C565        C569   1.459       .  S
C565        H594   1.080       .  S
C565        N589   1.335       .  A
Co566       N584   2.088       .  S
Co566       N574   2.068       .  S
Co566     Cl1658   2.427       .  S
N567       C1653   1.345       .  A
N567       N1622   1.318       .  A
N567       Co568   2.093   1_655  S
Co568       N571   2.076       .  S
Co568      Cl610   2.473       .  S
C569        C616   1.474       .  S
C569        N607   1.350       .  A
N570        N577   1.318       .  A
N570        N600   1.321       .  A
N570       Co603   2.072       .  S
N571        N589   1.320       .  A
N571        N607   1.325       .  A
N572        C601   1.352       .  A
N572        N582   1.326       .  A
H573        C598   1.081       .  S
N574       N1615   1.318       .  A
N574        N595   1.321       .  A
N575        N593   1.320       .  A
N575        N580   1.330       .  A
C576        C604   1.457       .  S
C576        C643   1.479       .  S
C576        N580   1.354       .  A
N577        C592   1.349       .  A
N577       Co599   2.104       .  S
C578        C581   1.452       .  S
C578        H612   1.082       .  S
C578        N606   1.333       .  A
N579       C1609   1.349       .  A
C581        C625   1.471       .  S
C581        N602   1.355       .  A
N582       N1636   1.321       .  A
N583        C609   1.335       .  A
N583        N585   1.321       .  A
N584        C598   1.339       .  A
N584       N1610   1.320       .  A
N585        N613   1.324       .  A
H586        C609   1.081       .  S
H587        C604   1.082       .  S
N588       C1611   1.337       .  A
N588       N1630   1.321       .  A
N589       Co603   2.081       .  S
N590       N1650   1.330       .  A
N590       N1654   1.319       .  A
C591        C605   1.464       .  S
C591        N595   1.345       .  A
C592        C611   1.471       .  S
C592        H596   1.081       .  S
N593        C604   1.339       .  A
C597        C609   1.457       .  S
C597        C634   1.474       .  S
C597        N613   1.353       .  A
Co599      Cl610   2.477       .  S
N600        C611   1.344       .  A
N602       N1638   1.330       .  A
Co603      Cl610   2.426       .  S
C605       H1612   1.081       .  S
C605       N1615   1.345       .  A
N606       N1638   1.319       .  A
H608       C1611   1.081   1_455  S
Cl610     Co1614   2.427   1_455  S
C614        C615   1.419       .  A
C614        C619   1.419       .  A
C614       C1003   1.520       .  S
C615        C616   1.400       .  A
C615        H620   1.074       .  S
C616        C617   1.391       .  A
C617        C618   1.393       .  A
C617        H621   1.078       .  S
C618        C619   1.404       .  A
C618        C665   1.476       .  S
C619        H622   1.078       .  S
C623        C624   1.413       .  A
C623        C628   1.411       .  A
C623        C990   1.498       .  S
C624        C625   1.404       .  A
C624        H629   1.083       .  S
C625        C626   1.399       .  A
C626        C627   1.397       .  A
C626        H630   1.085       .  S
C627        C628   1.403       .  A
C627        C650   1.468       .  S
C628        H631   1.083       .  S
C632        C633   1.404       .  A
C632        C637   1.405       .  A
C632        C980   1.487       .  S
C633        C634   1.401       .  A
C633        H638   1.081       .  S
C634        C635   1.398       .  A
C635        C636   1.402       .  A
C635        H639   1.082       .  S
C636        C637   1.405       .  A
C636        C670   1.472       .  S
C637        H640   1.083       .  S
C641        C642   1.413       .  A
C641        C646   1.406       .  A
C641        C970   1.491       .  S
C642        C643   1.405       .  A
C642        H647   1.084       .  S
C643        C644   1.401       .  A
C644        C645   1.403       .  A
C644        H648   1.085       .  S
C645        C646   1.405       .  A
C645        C690   1.470       .  S
C646        H649   1.084       .  S
C650        C687   1.453       .  S
C650        N668   1.353       .  A
N651        N668   1.328       .  A
N651        N673   1.319       .  A
N651       Co688   2.095       .  S
C652        C690   1.468       .  S
C652        H697   1.081       .  S
C652        N677   1.347       .  A
H653        C694   1.080       .  S
C654        C658   1.453       .  S
C654        H683   1.082       .  S
C654        N678   1.334       .  A
Co655       N673   2.068       .  S
Co655       N663   2.090       .  S
Co655       N695   2.084       .  S
Co655       N671   2.070       .  S
Co655      Cl699   2.425       .  S
N656        C694   1.331       .  A
N656        N663   1.320       .  A
N656       Co657   2.064       .  S
Co657       N660   2.103       .  S
Co657       N677   2.098       .  S
Co657       N664   2.073       .  S
Co657      Cl699   2.476       .  S
C658        N696   1.356       .  A
N659        N666   1.319       .  A
N659        N689   1.323       .  A
N659       Co692   2.085       .  S
N660        N678   1.318       .  A
N660        N696   1.330       .  A
N661        C690   1.344       .  A
N661        N671   1.320       .  A
H662        C687   1.082       .  S
N663        N684   1.326       .  A
N664        N682   1.320       .  A
N664        N669   1.325       .  A
C665        C693   1.462       .  S
C665        N669   1.350       .  A
N666        C681   1.339       .  A
N666       Co688   2.072       .  S
C667        C670   1.460       .  S
C667        H701   1.081       .  S
C667        N695   1.337       .  A
C670        N691   1.350       .  A
N671        N677   1.319       .  A
N672        C698   1.346       .  A
N672        N674   1.319       .  A
N672       Co688   2.097       .  S
N673        C687   1.336       .  A
N674        N702   1.323       .  A
N674       Co692   2.078       .  S
H675        C698   1.081       .  S
H676        C693   1.081       .  S
N678       Co692   2.068       .  S
N679        N691   1.324       .  A
N679        N695   1.320       .  A
N679       Co688   2.074       .  S
C680        C694   1.458       .  S
C680        N684   1.352       .  A
C681        C700   1.460       .  S
C681        H685   1.081       .  S
N682        C693   1.334       .  A
N682       Co692   2.085       .  S
C686        C698   1.465       .  S
C686        N702   1.347       .  A
Co688      Cl699   2.474       .  S
N689        C700   1.349       .  A
Co692      Cl699   2.422       .  S
C703        C704   1.372       .  D
C703        C963   1.493       .  S
C704       C1020   1.500       .  S
C705        C706   1.377   1_556  D
C705        C933   1.499       .  S
C705       C1991   1.501   1_455  S
C706       C1000   1.492       .  S
C706       C2061   1.511   1_455  S
C707        C708   1.370       .  D
C707        C983   1.493       .  S
C707       C2091   1.489       .  S
C708        C910   1.500       .  S
C708       C1968   1.499       .  S
C709        C710   1.399   1_554  D
C709       C1033   1.484       .  S
C710        C900   1.562       .  S
C711        C712   1.403       .  A
C711        C716   1.397       .  A
C711        C903   1.471       .  S
C712        C713   1.407       .  A
C712        H717   1.083       .  S
C713        C714   1.403       .  A
C713        C886   1.475       .  S
C714        C715   1.400       .  A
C714        H718   1.082       .  S
C715        C716   1.399       .  A
C715        C765   1.469       .  S
C716        H719   1.084       .  S
C720        C721   1.414       .  A
C720        C725   1.413       .  A
C720        C940   1.501       .  S
C721        C722   1.404       .  A
C721        H726   1.083       .  S
C722        C723   1.397       .  A
C722        C785   1.473       .  S
C723        C724   1.399       .  A
C723        H727   1.085       .  S
C724        C725   1.406       .  A
C724        C836   1.470       .  S
C725        H728   1.083       .  S
C729        C730   1.408       .  A
C729        C734   1.406       .  A
C729        C890   1.492       .  S
C730        C731   1.406       .  A
C730        H735   1.083       .  S
C731        C732   1.401       .  A
C731        C856   1.476       .  S
C732        C733   1.399       .  A
C732        H736   1.082       .  S
C733        C734   1.402       .  A
C733        C801   1.475       .  S
C734        H737   1.081       .  S
C738        C739   1.412       .  A
C738        C743   1.413       .  A
C738        C930   1.505       .  S
C739        C740   1.400       .  A
C739        H744   1.082       .  S
C740        C741   1.400       .  A
C740        C872   1.469       .  S
C741        C742   1.402       .  A
C741        H745   1.084       .  S
C742        C743   1.405       .  A
C742        C815   1.473       .  S
C743        H746   1.082       .  S
C747        C748   1.412       .  A
C747        C752   1.409       .  A
C747        C913   1.498       .  S
C748        C749   1.404       .  A
C748        H753   1.083       .  S
C749        C750   1.400       .  A
C749        C780   1.473       .  S
C750        C751   1.400       .  A
C750        H754   1.085       .  S
C751        C752   1.402       .  A
C751        C876   1.467       .  S
C752        H755   1.083       .  S
C756        C757   1.401       .  A
C756        C761   1.400       .  A
C756        C953   1.488       .  S
C757        C758   1.406       .  A
C757        H762   1.081       .  S
C758        C759   1.404       .  A
C758        C866   1.476       .  S
C759        C760   1.404       .  A
C759        H763   1.083       .  S
C760        C761   1.404       .  A
C760        C805   1.476       .  S
C761        H764   1.080       .  S
C765        C802   1.460       .  S
C765        N783   1.348       .  A
N766        N783   1.321       .  A
N766        N788   1.320       .  A
N766       Co803   2.069       .  S
C767        C805   1.458       .  S
C767        H812   1.081       .  S
C767        N792   1.333       .  A
H768        C809   1.081       .  S
C769        C773   1.461       .  S
C769        H798   1.081       .  S
C769        N793   1.335       .  A
Co770       N788   2.085       .  S
Co770       N778   2.077       .  S
Co770       N810   2.076       .  S
Co770       N786   2.094       .  S
Co770      Cl814   2.429       .  S
N771        C809   1.348       .  A
N771        N778   1.319       .  A
N771       Co772   2.095       .  S
Co772       N775   2.070       .  S
Co772       N792   2.066       .  S
Co772       N779   2.097       .  S
Co772      Cl814   2.473       .  S
C773        C831   1.472       .  S
C773        N811   1.349       .  A
N774        N781   1.319       .  A
N774        N804   1.322       .  A
N774       Co807   2.080       .  S
N775        N793   1.320       .  A
N775        N811   1.323       .  A
N776        C805   1.353       .  A
N776        N786   1.326       .  A
H777        C802   1.081       .  S
N778        N799   1.321       .  A
N779        N797   1.319       .  A
N779        N784   1.328       .  A
C780        C808   1.456       .  S
C780        N784   1.353       .  A
N781        C796   1.347       .  A
N781       Co803   2.096       .  S
C782        C785   1.455       .  S
C782        H816   1.082       .  S
C782        N810   1.336       .  A
C785        N806   1.353       .  A
N786        N792   1.320       .  A
N787        C813   1.338       .  A
N787        N789   1.320       .  A
N787       Co803   2.071       .  S
N788        C802   1.339       .  A
N789        N817   1.323       .  A
N789       Co807   2.090       .  S
H790        C813   1.081       .  S
H791        C808   1.082       .  S
N793       Co807   2.083       .  S
N794        N806   1.329       .  A
N794        N810   1.320       .  A
N794       Co803   2.096       .  S
C795        C809   1.467       .  S
C795        C820   1.472       .  S
C795        N799   1.346       .  A
C796        C815   1.466       .  S
C796        H800   1.081       .  S
N797        C808   1.337       .  A
N797       Co807   2.077       .  S
C801        C813   1.460       .  S
C801        N817   1.351       .  A
Co803      Cl814   2.473       .  S
N804        C815   1.348       .  A
Co807      Cl814   2.427       .  S
C818        C819   1.414       .  A
C818        C823   1.414       .  A
C818        C923   1.505       .  S
C819        C820   1.404       .  A
C819        H824   1.082       .  S
C820        C821   1.400       .  A
C821        C822   1.399       .  A
C821        H825   1.085       .  S
C822        C823   1.405       .  A
C822        C844   1.473       .  S
C823        H826   1.082       .  S
C827        C828   1.409       .  A
C827        C832   1.407       .  A
C827        C960   1.488       .  S
C828        C829   1.404       .  A
C828        H833   1.083       .  S
C829        C830   1.397       .  A
C829        C851   1.473       .  S
C830        C831   1.395       .  A
C830        H834   1.079       .  S
C831        C832   1.400       .  A
C832        H835   1.083       .  S
C836        C873   1.449       .  S
C836        N854   1.355       .  A
N837        N854   1.330       .  A
N837        N859   1.319       .  A
N837      Co1398   2.101       .  S
C838        C876   1.467       .  S
C838        H883   1.081       .  S
C838        N863   1.347       .  A
H839        C880   1.081       .  S
C840        C844   1.451       .  S
C840        H869   1.082       .  S
C840        N864   1.336       .  A
Co841      N1907   2.060   1_455  S
Co841      N1897   2.102   1_455  S
Co841       N881   2.095       .  S
Co841       N857   2.061       .  S
N842        C880   1.333       .  A
N842        N849   1.321       .  A
N842      Co1367   2.065       .  S
Co843      N1366   2.065   1_465  S
Co843      N1894   2.104   1_455  S
Co843       N850   2.069       .  S
Co843      Cl885   2.477       .  S
C844        N882   1.356       .  A
N845        N852   1.321       .  A
N845        N875   1.322       .  A
N845      Co1926   2.093       .  S
N846        N864   1.318       .  A
N846        N882   1.329       .  A
N846      Co1891   2.104       .  S
N847        C876   1.343       .  A
N847        N857   1.319       .  A
H848        C873   1.082       .  S
N849        N870   1.327       .  A
N849      Co1889   2.102       .  S
N850        N868   1.320       .  A
N850        N855   1.324       .  A
C851        C879   1.461       .  S
C851        N855   1.349       .  A
N852        C867   1.341       .  A
N852      Co1922   2.076       .  S
C853        C856   1.463       .  S
C853        H887   1.081       .  S
C853        N881   1.339       .  A
C856        N877   1.349       .  A
N857        N863   1.318       .  A
N858        C884   1.347       .  A
N858        N860   1.317       .  A
N858       Co874   2.102       .  S
N859        C873   1.334       .  A
N859      Co1889   2.060       .  S
N860        N888   1.320       .  A
N860       Co878   2.060       .  S
H861        C884   1.081       .  S
H862        C879   1.080       .  S
N864      Co1926   2.063       .  S
N865        N877   1.324       .  A
N865        N881   1.321       .  A
C866        C880   1.457       .  S
C866        N870   1.354       .  A
C867        C886   1.460       .  S
C867        H871   1.081       .  S
N868        C879   1.335       .  A
N868       Co878   2.088       .  S
C872        C884   1.469       .  S
C872        N888   1.343       .  A
Co874      N1361   2.101   1_465  S
Co874      N1900   2.076   1_455  S
Co874      Cl885   2.478       .  S
N875        C886   1.351       .  A
Co878      N1893   2.093   1_455  S
Co878      N1912   2.063   1_455  S
Co878      Cl885   2.419       .  S
C889        C890   1.413       .  A
C889        C894   1.404       .  A
C889        F896   1.357       .  S
C890        C891   1.410       .  A
C891        C892   1.392       .  A
C891        F898   1.358       .  S
C892        C893   1.408       .  A
C892        F897   1.359       .  S
C893        C894   1.405       .  A
C899        C900   1.427       .  A
C899        C904   1.399       .  A
C899        F906   1.343       .  S
C900        C901   1.431       .  A
C901        C902   1.397       .  A
C901        F908   1.357       .  S
C902        C903   1.394       .  A
C902        F907   1.358       .  S
C903        C904   1.392       .  A
C904        F905   1.359       .  S
C909        C910   1.405       .  A
C909        C914   1.398       .  A
C909        F916   1.358       .  S
C910        C911   1.410       .  A
C911        C912   1.402       .  A
C911        F918   1.357       .  S
C912        C913   1.411       .  A
C912        F917   1.358       .  S
C913        C914   1.413       .  A
C914        F915   1.358       .  S
C919        C920   1.407       .  A
C919        C924   1.403       .  A
C919       F1974   1.358       .  S
C920        C921   1.402       .  A
C920       C1756   1.499       .  S
C921        C922   1.399       .  A
C921        F928   1.358       .  S
C922        C923   1.417       .  A
C922        F927   1.357       .  S
C923        C924   1.414       .  A
C924        F925   1.357       .  S
F926       C1967   1.358       .  S
C929        C930   1.414       .  A
C929        C934   1.397       .  A
C929        F936   1.357       .  S
C930        C931   1.418       .  A
C931        C932   1.401       .  A
C931        F938   1.357       .  S
C932        C933   1.402       .  A
C932        F937   1.358       .  S
C933        C934   1.404       .  A
C934        F935   1.354       .  S
C939        C940   1.412       .  A
C939        C944   1.397       .  A
C939        F946   1.358       .  S
C940        C941   1.412       .  A
C941        C942   1.406       .  A
C941        F948   1.357       .  S
C942        C943   1.409       .  A
C942        F947   1.357       .  S
C943        C944   1.406       .  A
C943       C1753   1.501       .  S
C944        F945   1.358       .  S
C949        C950   1.406       .  A
C949        C954   1.392       .  A
C950        C951   1.407       .  A
C951        C952   1.400       .  A
C951        F958   1.357       .  S
C952        C953   1.411       .  A
C952        F957   1.358       .  S
C953        C954   1.409       .  A
C954        F955   1.358       .  S
C959        C960   1.409       .  A
C959        C964   1.392       .  A
C959        F966   1.358       .  S
C960        C961   1.411       .  A
C961        C962   1.401       .  A
C961        F968   1.358       .  S
C962        C963   1.407       .  A
C962        F967   1.357       .  S
C963        C964   1.405       .  A
C964        F965   1.358       .  S
C969        C970   1.397       .  A
C969        C974   1.393       .  A
C969        F976   1.359       .  S
C970        C971   1.404       .  A
C971        C972   1.411       .  A
C971        F978   1.357       .  S
C972        C973   1.424       .  A
C972        F977   1.354       .  S
C973        C974   1.425       .  A
C979        C980   1.410       .  A
C979        C984   1.403       .  A
C979        F986   1.357       .  S
C980        C981   1.408       .  A
C981        C982   1.391       .  A
C981        F988   1.358       .  S
C982        C983   1.406       .  A
C982        F987   1.358   1_455  S
C983        C984   1.407       .  A
C984        F985   1.357       .  S
C989        C990   1.411       .  A
C989        C994   1.402       .  A
C989        F996   1.358       .  S
C990        C991   1.413       .  A
C991        C992   1.398       .  A
C991        F998   1.358       .  S
C992        C993   1.405       .  A
C993        C994   1.409       .  A
C994        F995   1.357       .  S
C999       C1000   1.397       .  A
C999       C1004   1.396       .  A
C999       F1006   1.358       .  S
C1000      C1001   1.399       .  A
C1001      C1002   1.399       .  A
C1001      F1008   1.359       .  S
C1002      C1003   1.425       .  A
C1002      F1007   1.353       .  S
C1003      C1004   1.422       .  A
C1004      F1005   1.356       .  S
C1009      C1010   1.397       .  A
C1009      C1014   1.388       .  A
C1009      F1016   1.359       .  S
C1010      C1011   1.407       .  A
C1011      C1012   1.403       .  A
C1011      F1018   1.358       .  S
C1012      C1013   1.414       .  A
C1012      F1017   1.356       .  S
C1013      C1014   1.419       .  A
C1013      C1754   1.511       .  S
C1014      F2063   1.351       .  S
F1015      C2062   1.351       .  S
C1019      C1020   1.405       .  A
C1019      C1024   1.398       .  A
C1019      F1026   1.358       .  S
C1020      C1021   1.409       .  A
C1021      C1022   1.403       .  A
C1021      F1028   1.357       .  S
C1022      C1023   1.411       .  A
C1022      F1027   1.358       .  S
C1023      C1024   1.412       .  A
C1024      F1025   1.358       .  S
C1029      C1030   1.419       .  A
C1029      C1034   1.403       .  A
C1029      F1036   1.357       .  S
C1030      C1031   1.418       .  A
C1031      C1032   1.397       .  A
C1031      F1038   1.356       .  S
C1032      C1033   1.405       .  A
C1032      F1037   1.359       .  S
C1033      C1034   1.404       .  A
C1034      F1035   1.358       .  S
C1039      C1040   1.411       .  A
C1039      C1044   1.397       .  A
C1039      F1046   1.358       .  S
C1040      C1041   1.410       .  A
C1041      C1042   1.393       .  A
C1041      F1048   1.358       .  S
C1042      C1043   1.404       .  A
C1042      F2095   1.358       .  S
C1043      C1044   1.405       .  A
C1043      C1755   1.489       .  S
C1044      F1045   1.357       .  S
F1047      C2090   1.358       .  S
C1049      C1050   1.405       .  A
C1049      C1054   1.404       .  A
C1049      C1564   1.487       .  S
C1050      C1051   1.402       .  A
C1050      H1055   1.081       .  S
C1051      C1052   1.401       .  A
C1051      C1224   1.473       .  S
C1052      C1053   1.400       .  A
C1052      H1056   1.082       .  S
C1053      C1054   1.401       .  A
C1053      C1085   1.473       .  S
C1054      H1057   1.083       .  S
C1058      C1059   1.412       .  A
C1058      C1063   1.417       .  A
C1058      C1554   1.508       .  S
C1059      C1060   1.400       .  A
C1059      H1064   1.081       .  S
C1060      C1061   1.396       .  A
C1060      C1115   1.467       .  S
C1061      C1062   1.400       .  A
C1061      H1065   1.084       .  S
C1062      C1063   1.405       .  A
C1062      C1182   1.474       .  S
C1063      H1066   1.081       .  S
C1067      C1068   1.409       .  A
C1067      C1072   1.411       .  A
C1067      C1547   1.497       .  S
C1068      C1069   1.403       .  A
C1068      H1073   1.083       .  S
C1069      C1070   1.402       .  A
C1069      C1210   1.473       .  S
C1070      C1071   1.404       .  A
C1070      H1074   1.084       .  S
C1071      C1072   1.403       .  A
C1071      C1135   1.474       .  S
C1072      H1075   1.083       .  S
C1076      C1077   1.392       .  A
C1076      C1081   1.402       .  A
C1076      C1534   1.479       .  S
C1077      C1078   1.401       .  A
C1077      H1082   1.080       .  S
C1078      C1079   1.406       .  A
C1078      C1204   1.473       .  S
C1079      C1080   1.408       .  A
C1079      H1083   1.083       .  S
C1080      C1081   1.405       .  A
C1080      C1125   1.479       .  S
C1081      H1084   1.082       .  S
C1085      C1122   1.461       .  S
N1086      N1103   1.322       .  A
N1086     Co1123   2.072       .  S
C1087      C1125   1.461       .  S
C1089      C1093   1.459       .  S
C1089      H1118   1.080       .  S
C1089      N1113   1.335       .  A
Co1090     N1108   2.088       .  S
Co1090     N1098   2.068       .  S
Co1090     N1654   2.066       .  S
Co1090     N1630   2.095       .  S
N1091     Co1092   2.093       .  S
Co1092     N1095   2.076       .  S
Co1092     N1636   2.077       .  S
Co1092     N1623   2.101       .  S
Co1092    Cl1134   2.473       .  S
C1093      C1140   1.474       .  S
C1093      N1131   1.350       .  A
N1094      N1101   1.318       .  A
N1094      N1124   1.321       .  A
N1094     Co1127   2.072       .  S
N1095      N1113   1.320       .  A
N1095      N1131   1.325       .  A
N1096      C1125   1.352       .  A
N1096      N1106   1.326       .  A
H1097      C1122   1.081       .  S
N1098      N1119   1.321       .  A
N1099      N1117   1.320       .  A
N1099      N1104   1.330       .  A
N1099     Co1616   2.101   1_545  S
C1100      C1128   1.457       .  S
C1100      C1167   1.479       .  S
C1100      N1104   1.354       .  A
N1101      C1116   1.349       .  A
N1101     Co1123   2.104       .  S
C1102      C1105   1.452       .  S
C1102      H1136   1.082       .  S
C1102      N1130   1.333       .  A
C1105      C1149   1.471       .  S
C1105      N1126   1.355       .  A
N1106     Co1614   2.095   1_545  S
N1107      C1133   1.335       .  A
N1107      N1109   1.321       .  A
N1107     Co1647   2.068   1_545  S
N1108      C1122   1.339       .  A
N1109      N1137   1.324       .  A
N1109     Co1651   2.094   1_545  S
H1110      C1133   1.081       .  S
H1111      C1128   1.082       .  S
N1112     Co1616   2.077   1_545  S
N1113     Co1127   2.081       .  S
N1114     Co1647   2.101   1_545  S
C1115      C1129   1.464       .  S
C1115      N1119   1.345       .  A
C1116      C1135   1.471       .  S
C1116      H1120   1.081       .  S
N1117      C1128   1.339       .  A
N1117     Co1651   2.081   1_545  S
C1121      C1133   1.457       .  S
C1121      C1158   1.474       .  S
C1121      N1137   1.353       .  A
Co1123     N1631   2.068       .  S
Co1123     N1638   2.101       .  S
Co1123    Cl1134   2.477       .  S
N1124      C1135   1.344       .  A
Co1127     N1633   2.094       .  S
Co1127     N1641   2.081       .  S
Co1127    Cl1134   2.426       .  S
N1130     Co1614   2.066   1_545  S
C1138      C1139   1.419       .  A
C1138      C1143   1.419       .  A
C1138      C1527   1.520       .  S
C1139      C1140   1.400       .  A
C1139      H1144   1.074       .  S
C1140      C1141   1.391       .  A
C1141      C1142   1.393       .  A
C1141      H1145   1.078       .  S
C1142      C1143   1.404       .  A
C1142      C1189   1.476       .  S
C1143      H1146   1.078       .  S
C1147      C1148   1.413       .  A
C1147      C1152   1.411       .  A
C1147      C1514   1.498       .  S
C1148      C1149   1.404       .  A
C1148      H1153   1.083       .  S
C1149      C1150   1.399       .  A
C1150      C1151   1.397       .  A
C1150      H1154   1.085       .  S
C1151      C1152   1.403       .  A
C1151      C1174   1.468       .  S
C1152      H1155   1.083       .  S
C1156      C1157   1.404       .  A
C1156      C1161   1.405       .  A
C1156      C1504   1.487       .  S
C1157      C1158   1.401       .  A
C1157      H1162   1.081       .  S
C1158      C1159   1.398       .  A
C1159      C1160   1.402       .  A
C1159      H1163   1.082       .  S
C1160      C1161   1.405       .  A
C1160      C1194   1.472       .  S
C1161      H1164   1.083       .  S
C1165      C1166   1.413       .  A
C1165      C1170   1.406       .  A
C1165      C1494   1.491       .  S
C1166      C1167   1.405       .  A
C1166      H1171   1.084       .  S
C1167      C1168   1.401       .  A
C1168      C1169   1.403       .  A
C1168      H1172   1.085       .  S
C1169      C1170   1.405       .  A
C1169      C1214   1.470       .  S
C1170      H1173   1.084       .  S
C1174      C1211   1.453       .  S
C1174      N1192   1.353       .  A
N1175      N1192   1.328       .  A
N1175      N1197   1.319       .  A
N1175     Co1212   2.095       .  S
C1176      C1214   1.468       .  S
C1176      H1221   1.081       .  S
C1176      N1201   1.347       .  A
H1177      C1218   1.080       .  S
C1178      C1182   1.453       .  S
C1178      H1207   1.082       .  S
C1178      N1202   1.334       .  A
Co1179     N1197   2.068       .  S
Co1179     N1187   2.090       .  S
Co1179     N1219   2.084       .  S
Co1179     N1195   2.070       .  S
Co1179    Cl1223   2.425       .  S
N1180      C1218   1.331       .  A
N1180      N1187   1.320       .  A
N1180     Co1181   2.064       .  S
Co1181     N1184   2.103       .  S
Co1181     N1201   2.098       .  S
Co1181     N1188   2.073       .  S
Co1181    Cl1223   2.476       .  S
C1182      N1220   1.356       .  A
N1183      N1190   1.319       .  A
N1183      N1213   1.323       .  A
N1183     Co1216   2.085       .  S
N1184      N1202   1.318       .  A
N1184      N1220   1.330       .  A
N1185      C1214   1.344       .  A
N1185      N1195   1.320       .  A
H1186      C1211   1.082       .  S
N1187      N1208   1.326       .  A
N1188      N1206   1.320       .  A
N1188      N1193   1.325       .  A
C1189      C1217   1.462       .  S
C1189      N1193   1.350       .  A
N1190      C1205   1.339       .  A
N1190     Co1212   2.072       .  S
C1191      C1194   1.460       .  S
C1191      H1225   1.081       .  S
C1191      N1219   1.337       .  A
C1194      N1215   1.350       .  A
N1195      N1201   1.319       .  A
N1196      C1222   1.346       .  A
N1196      N1198   1.319       .  A
N1196     Co1212   2.097       .  S
N1197      C1211   1.336       .  A
N1198      N1226   1.323       .  A
N1198     Co1216   2.078       .  S
H1199      C1222   1.081       .  S
H1200      C1217   1.081       .  S
N1202     Co1216   2.068       .  S
N1203      N1215   1.324       .  A
N1203      N1219   1.320       .  A
N1203     Co1212   2.074       .  S
C1204      C1218   1.458       .  S
C1204      N1208   1.352       .  A
C1205      C1224   1.460       .  S
C1205      H1209   1.081       .  S
N1206      C1217   1.334       .  A
N1206     Co1216   2.085       .  S
C1210      C1222   1.465       .  S
C1210      N1226   1.347       .  A
Co1212    Cl1223   2.474       .  S
N1213      C1224   1.349       .  A
Co1216    Cl1223   2.422       .  S
C1227      C1228   1.372       .  D
C1227      C1998   1.493       .  S
C1227      C1487   1.493       .  S
C1228      C2041   1.501       .  S
C1228      C1544   1.500       .  S
C1229      C1230   1.377   1_556  D
C1229      C1457   1.499       .  S
C1230      C1524   1.492       .  S
C1231      C1232   1.370       .  D
C1231      C1507   1.493       .  S
C1232      C1434   1.500       .  S
C1233      C1234   1.399   1_554  D
C1233      C2021   1.547       .  S
C1233      C1557   1.484       .  S
C1234      C1941   1.493       .  S
C1234      C1424   1.562       .  S
C1235      C1236   1.403       .  A
C1235      C1240   1.397       .  A
C1235      C1427   1.471       .  S
C1236      C1237   1.407       .  A
C1236      H1241   1.083       .  S
C1237      C1238   1.403       .  A
C1237      C1410   1.475       .  S
C1238      C1239   1.400       .  A
C1238      H1242   1.082       .  S
C1239      C1240   1.399       .  A
C1239      C1289   1.469       .  S
C1240      H1243   1.084       .  S
C1244      C1245   1.414       .  A
C1244      C1249   1.413       .  A
C1244      C1464   1.501       .  S
C1245      C1246   1.404       .  A
C1245      H1250   1.083       .  S
C1246      C1247   1.397       .  A
C1246      C1309   1.473       .  S
C1247      C1248   1.399       .  A
C1247      H1251   1.085       .  S
C1248      C1249   1.406       .  A
C1248      C1360   1.470       .  S
C1249      H1252   1.083       .  S
C1253      C1254   1.408       .  A
C1253      C1258   1.406       .  A
C1253      C1414   1.492       .  S
C1254      C1255   1.406       .  A
C1254      H1259   1.083       .  S
C1255      C1256   1.401       .  A
C1255      C1380   1.476       .  S
C1256      C1257   1.399       .  A
C1256      H1260   1.082       .  S
C1257      C1258   1.402       .  A
C1257      C1325   1.475       .  S
C1258      H1261   1.081       .  S
C1262      C1263   1.412       .  A
C1262      C1267   1.413       .  A
C1262      C1454   1.505       .  S
C1263      C1264   1.400       .  A
C1263      H1268   1.082       .  S
C1264      C1265   1.400       .  A
C1264      C1396   1.469       .  S
C1265      C1266   1.402       .  A
C1265      H1269   1.084       .  S
C1266      C1267   1.405       .  A
C1266      C1339   1.473       .  S
C1267      H1270   1.082       .  S
C1271      C1272   1.412       .  A
C1271      C1276   1.409       .  A
C1271      C1437   1.498       .  S
C1272      C1273   1.404       .  A
C1272      H1277   1.083       .  S
C1273      C1274   1.400       .  A
C1273      C1304   1.473       .  S
C1274      C1275   1.400       .  A
C1274      H1278   1.085       .  S
C1275      C1276   1.402       .  A
C1275      C1400   1.467       .  S
C1276      H1279   1.083       .  S
C1280      C1281   1.401       .  A
C1280      C1285   1.400       .  A
C1280      C1477   1.488       .  S
C1281      C1282   1.406       .  A
C1281      H1286   1.081       .  S
C1282      C1283   1.404       .  A
C1282      C1390   1.476       .  S
C1283      C1284   1.404       .  A
C1283      H1287   1.083       .  S
C1284      C1285   1.404       .  A
C1284      C1329   1.475       .  S
C1285      H1288   1.080       .  S
C1289      C1326   1.460       .  S
C1289      N1307   1.348       .  A
N1290      N1307   1.321       .  A
N1290      N1312   1.320       .  A
N1290     Co1327   2.069       .  S
C1291      C1329   1.458       .  S
C1291      H1336   1.081       .  S
C1291      N1316   1.333       .  A
H1292      C1333   1.082       .  S
C1293      C1297   1.461       .  S
C1293      H1322   1.081       .  S
C1293      N1317   1.335       .  A
Co1294     N1312   2.086       .  S
Co1294     N1302   2.077       .  S
Co1294     N1334   2.076       .  S
Co1294     N1310   2.093       .  S
Co1294    Cl1338   2.429       .  S
N1295      C1333   1.348       .  A
N1295      N1302   1.319       .  A
N1295     Co1296   2.095       .  S
Co1296     N1299   2.069       .  S
Co1296     N1316   2.066       .  S
Co1296     N1303   2.098       .  S
Co1296    Cl1338   2.473       .  S
C1297      C1355   1.472       .  S
C1297      N1335   1.349       .  A
N1298      N1305   1.319       .  A
N1298      N1328   1.322       .  A
N1298     Co1331   2.080       .  S
N1299      N1317   1.320       .  A
N1299      N1335   1.323       .  A
N1300      C1329   1.353       .  A
N1300      N1310   1.326       .  A
H1301      C1326   1.081       .  S
N1302      N1323   1.321       .  A
N1303      N1321   1.319       .  A
N1303      N1308   1.328       .  A
C1304      C1332   1.456       .  S
C1304      N1308   1.354       .  A
N1305      C1320   1.347       .  A
N1305     Co1327   2.095       .  S
C1306      C1309   1.455       .  S
C1306      H1340   1.082       .  S
C1306      N1334   1.336       .  A
C1309      N1330   1.353       .  A
N1310      N1316   1.320       .  A
N1311      C1337   1.338       .  A
N1311      N1313   1.320       .  A
N1311     Co1327   2.071       .  S
N1312      C1326   1.339       .  A
N1313      N1341   1.323       .  A
N1313     Co1331   2.089       .  S
H1314      C1337   1.081       .  S
H1315      C1332   1.082       .  S
N1317     Co1331   2.083       .  S
N1318      N1330   1.329       .  A
N1318      N1334   1.320       .  A
N1318     Co1327   2.096       .  S
C1319      C1333   1.466       .  S
C1319      C1344   1.472       .  S
C1319      N1323   1.346       .  A
C1320      C1339   1.466       .  S
C1320      H1324   1.081       .  S
N1321      C1332   1.337       .  A
N1321     Co1331   2.077       .  S
C1325      C1337   1.460       .  S
C1325      N1341   1.351       .  A
Co1327    Cl1338   2.473       .  S
N1328      C1339   1.348       .  A
Co1331    Cl1338   2.427       .  S
C1342      C1343   1.414       .  A
C1342      C1347   1.414       .  A
C1342      C1447   1.506       .  S
C1343      C1344   1.404       .  A
C1343      H1348   1.082       .  S
C1344      C1345   1.399       .  A
C1345      C1346   1.399       .  A
C1345      H1349   1.085       .  S
C1346      C1347   1.405       .  A
C1346      C1368   1.473       .  S
C1347      H1350   1.082       .  S
C1351      C1352   1.409       .  A
C1351      C1356   1.407       .  A
C1351      C1484   1.488       .  S
C1352      C1353   1.404       .  A
C1352      H1357   1.083       .  S
C1353      C1354   1.397       .  A
C1353      C1375   1.473       .  S
C1354      C1355   1.395       .  A
C1354      H1358   1.079       .  S
C1355      C1356   1.400       .  A
C1356      H1359   1.083       .  S
C1360      C1397   1.449       .  S
C1360      N1378   1.355       .  A
N1361      N1378   1.330       .  A
N1361      N1383   1.319       .  A
C1362      C1400   1.467       .  S
C1362      H1407   1.081       .  S
C1362      N1387   1.347       .  A
H1363      C1404   1.081   1_565  S
C1364      C1368   1.451       .  S
C1364      H1393   1.082       .  S
C1364      N1388   1.336       .  A
Co1365     N1405   2.095       .  S
Co1365     N1381   2.061       .  S
Co1365    Cl1933   2.421   1_545  S
N1366      C1404   1.333       .  A
N1366      N1373   1.321       .  A
Co1367     N1911   2.097       .  S
Co1367     N1374   2.069       .  S
Co1367    Cl1409   2.477       .  S
C1368      N1406   1.356       .  A
N1369      N1376   1.321       .  A
N1369      N1399   1.322       .  A
N1370      N1388   1.318       .  A
N1370      N1406   1.329       .  A
N1371      C1400   1.343       .  A
N1371      N1381   1.319       .  A
H1372      C1397   1.082       .  S
N1373      N1394   1.327       .  A
N1374      N1392   1.320       .  A
N1374      N1379   1.324       .  A
C1375      C1403   1.461       .  S
C1375      N1379   1.349       .  A
N1376      C1391   1.341       .  A
C1377      C1380   1.463       .  S
C1377      H1411   1.081       .  S
C1377      N1405   1.339       .  A
C1380      N1401   1.349       .  A
N1381      N1387   1.318       .  A
N1382      C1408   1.347       .  A
N1382      N1384   1.317       .  A
N1382     Co1398   2.102       .  S
N1383      C1397   1.334       .  A
N1384      N1412   1.320       .  A
N1384     Co1402   2.060       .  S
H1385      C1408   1.081       .  S
H1386      C1403   1.080       .  S
N1387     Co1891   2.097   1_545  S
N1389      N1401   1.324       .  A
N1389      N1405   1.321       .  A
N1389     Co1922   2.074   1_545  S
C1390      C1404   1.457       .  S
C1390      N1394   1.354       .  A
C1391      C1410   1.460       .  S
C1391      H1395   1.081       .  S
N1392      C1403   1.335       .  A
N1392     Co1402   2.087       .  S
C1396      C1408   1.469       .  S
C1396      N1412   1.343       .  A
Co1398     N1913   2.074       .  S
Co1398    Cl1409   2.478       .  S
N1399      C1410   1.351       .  A
Co1402    Cl1409   2.419       .  S
Cl1409    Co1889   2.421       .  S
C1413      C1414   1.413       .  A
C1413      C1418   1.404   1_545  A
C1413      F1420   1.357       .  S
C1414      C1415   1.410       .  A
C1415      C1416   1.392       .  A
C1415      F1422   1.358       .  S
C1416      C1417   1.408   1_545  A
C1416      F1421   1.359       .  S
C1417      C1418   1.405       .  A
C1417      C1758   1.494       .  S
C1418      F1943   1.357       .  S
F1419      C1942   1.357       .  S
C1423      C1424   1.427       .  A
C1423      C1428   1.399       .  A
C1423      F1430   1.343       .  S
C1424      C1425   1.431       .  A
C1425      C1426   1.397       .  A
C1425      F1432   1.357       .  S
C1426      C1427   1.394       .  A
C1426      F1431   1.358       .  S
C1427      C1428   1.392       .  A
C1428      F1429   1.359       .  S
C1433      C1434   1.405       .  A
C1433      C1438   1.398       .  A
C1433      F1440   1.358       .  S
C1434      C1435   1.410       .  A
C1435      C1436   1.402       .  A
C1435      F1442   1.357       .  S
C1436      C1437   1.411       .  A
C1436      F1441   1.358       .  S
C1437      C1438   1.413       .  A
C1438      F1439   1.358       .  S
C1443      C1444   1.407       .  A
C1443      C1448   1.403   1_455  A
C1444      C1445   1.402   1_455  A
C1445      C1446   1.399       .  A
C1445      F1452   1.358       .  S
C1446      C1447   1.417       .  A
C1446      F1451   1.357       .  S
C1447      C1448   1.414       .  A
C1448      F1449   1.357       .  S
C1453      C1454   1.414       .  A
C1453      C1458   1.397       .  A
C1453      F1460   1.357       .  S
C1454      C1455   1.418       .  A
C1455      C1456   1.401       .  A
C1455      F1462   1.357       .  S
C1456      C1457   1.402       .  A
C1456      F1461   1.358       .  S
C1457      C1458   1.404       .  A
C1458      F1459   1.354       .  S
C1463      C1464   1.412       .  A
C1463      C1468   1.397       .  A
C1463      F1470   1.358       .  S
C1464      C1465   1.412       .  A
C1465      C1466   1.406       .  A
C1465      F1472   1.357       .  S
C1466      C1467   1.409       .  A
C1466      F1471   1.357   1_655  S
C1467      C1468   1.406       .  A
C1468      F1469   1.358       .  S
C1473      C1474   1.406   1_545  A
C1473      C1478   1.392       .  A
C1473      F2004   1.358       .  S
C1474      C1475   1.407       .  A
C1474      C1751   1.493       .  S
C1475      C1476   1.400   1_565  A
C1475      F1482   1.357       .  S
C1476      C1477   1.411       .  A
C1476      F1481   1.358       .  S
C1477      C1478   1.409       .  A
C1478      F1479   1.358       .  S
F1480      C1997   1.358       .  S
C1483      C1484   1.409       .  A
C1483      C1488   1.392       .  A
C1483      F1490   1.358       .  S
C1484      C1485   1.411       .  A
C1485      C1486   1.401       .  A
C1485      F1492   1.358       .  S
C1486      C1487   1.407       .  A
C1486      F1491   1.357       .  S
C1487      C1488   1.405       .  A
C1488      F1489   1.358       .  S
C1493      C1494   1.397       .  A
C1493      C1498   1.393   1_545  A
C1493      F1500   1.359       .  S
C1494      C1495   1.404       .  A
C1495      C1496   1.411       .  A
C1495      F1502   1.357       .  S
C1496      C1497   1.424       .  A
C1496      F1501   1.354       .  S
C1497      C1498   1.425   1_545  A
C1497      C1757   1.547   1_545  S
C1498      F2023   1.348       .  S
F1499      C2022   1.348       .  S
C1503      C1504   1.410       .  A
C1503      C1508   1.403       .  A
C1503      F1510   1.357       .  S
C1504      C1505   1.408       .  A
C1505      C1506   1.391       .  A
C1505      F1512   1.358       .  S
C1506      C1507   1.406       .  A
C1506      F1511   1.358       .  S
C1507      C1508   1.407       .  A
C1508      F1509   1.357       .  S
C1513      C1514   1.411       .  A
C1513      C1518   1.402       .  A
C1513      F1520   1.358       .  S
C1514      C1515   1.413       .  A
C1515      C1516   1.398   1_545  A
C1515      F1522   1.358   1_545  S
C1516      C1517   1.405       .  A
C1516      F2045   1.358       .  S
C1517      C1518   1.409   1_565  A
C1517      C1752   1.501       .  S
C1518      F1519   1.357       .  S
F1521      C2040   1.358       .  S
C1523      C1524   1.397       .  A
C1523      C1528   1.396       .  A
C1523      F1530   1.358       .  S
C1524      C1525   1.399       .  A
C1525      C1526   1.399       .  A
C1525      F1532   1.359       .  S
C1526      C1527   1.425       .  A
C1526      F1531   1.353       .  S
C1527      C1528   1.422       .  A
C1528      F1529   1.356       .  S
C1533      C1534   1.397       .  A
C1533      C1538   1.388   1_655  A
C1533      F1540   1.359   1_655  S
C1534      C1535   1.407       .  A
C1535      C1536   1.403       .  A
C1535      F1542   1.358       .  S
C1536      C1537   1.414       .  A
C1536      F1541   1.356       .  S
C1537      C1538   1.419   1_655  A
C1543      C1544   1.405       .  A
C1543      C1548   1.398       .  A
C1543      F1550   1.358       .  S
C1544      C1545   1.409       .  A
C1545      C1546   1.403       .  A
C1545      F1552   1.357       .  S
C1546      C1547   1.411       .  A
C1546      F1551   1.358       .  S
C1547      C1548   1.412       .  A
C1548      F1549   1.358       .  S
C1553      C1554   1.419       .  A
C1553      C1558   1.403       .  A
C1553      F1560   1.357       .  S
C1554      C1555   1.418       .  A
C1555      C1556   1.397       .  A
C1555      F1562   1.356       .  S
C1556      C1557   1.406       .  A
C1556      F1561   1.359       .  S
C1557      C1558   1.404       .  A
C1558      F1559   1.358       .  S
C1563      C1564   1.411       .  A
C1563      C1568   1.397       .  A
C1563      F1570   1.358       .  S
C1564      C1565   1.410   1_655  A
C1565      C1566   1.393       .  A
C1565      F1572   1.358       .  S
C1566      C1567   1.404       .  A
C1567      C1568   1.405   1_455  A
C1568      F1569   1.357       .  S
C1573      C1574   1.405       .  A
C1573      C1578   1.404       .  A
C1573      C2088   1.487       .  S
C1574      C1575   1.402       .  A
C1574      H1579   1.081       .  S
C1575      C1576   1.401       .  A
C1575      C1748   1.473       .  S
C1576      C1577   1.400       .  A
C1576      H1580   1.082       .  S
C1577      C1578   1.401       .  A
C1577      C1609   1.473       .  S
C1578      H1581   1.083       .  S
C1582      C1583   1.412       .  A
C1582      C1587   1.417       .  A
C1582      C2078   1.508       .  S
C1583      C1584   1.400       .  A
C1583      H1588   1.081       .  S
C1584      C1585   1.396       .  A
C1584      C1639   1.467       .  S
C1585      C1586   1.400       .  A
C1585      H1589   1.084       .  S
C1586      C1587   1.405       .  A
C1586      C1706   1.474       .  S
C1587      H1590   1.081       .  S
C1591      C1592   1.409       .  A
C1591      C1596   1.411       .  A
C1591      C2071   1.497       .  S
C1592      C1593   1.403       .  A
C1592      H1597   1.083       .  S
C1593      C1594   1.402       .  A
C1593      C1734   1.473       .  S
C1594      C1595   1.404       .  A
C1594      H1598   1.084       .  S
C1595      C1596   1.403       .  A
C1595      C1659   1.474       .  S
C1596      H1599   1.083       .  S
C1600      C1601   1.392       .  A
C1600      C1605   1.402       .  A
C1600      C2058   1.479       .  S
C1601      C1602   1.401       .  A
C1601      H1606   1.080       .  S
C1602      C1603   1.406       .  A
C1602      C1728   1.473       .  S
C1603      C1604   1.408       .  A
C1603      H1607   1.083       .  S
C1604      C1605   1.405       .  A
C1604      C1649   1.479       .  S
C1605      H1608   1.082       .  S
C1609      C1646   1.461       .  S
N1610      N1627   1.322       .  A
N1610     Co1647   2.072       .  S
C1611      C1649   1.461       .  S
C1613      C1617   1.459       .  S
C1613      H1642   1.080       .  S
C1613      N1637   1.335       .  A
Co1614     N1632   2.088       .  S
Co1614     N1622   2.068       .  S
N1615     Co1616   2.093       .  S
Co1616     N1619   2.076       .  S
Co1616    Cl1658   2.473       .  S
C1617      C1664   1.474       .  S
C1617      N1655   1.350       .  A
N1618      N1625   1.318       .  A
N1618      N1648   1.321       .  A
N1618     Co1651   2.072       .  S
N1619      N1637   1.320       .  A
N1619      N1655   1.325       .  A
N1620      C1649   1.352       .  A
N1620      N1630   1.326       .  A
H1621      C1646   1.081       .  S
N1622      N1643   1.321       .  A
N1623      N1641   1.320       .  A
N1623      N1628   1.330       .  A
C1624      C1652   1.457       .  S
C1624      C1691   1.479       .  S
C1624      N1628   1.354       .  A
N1625      C1640   1.349       .  A
N1625     Co1647   2.104       .  S
C1626      C1629   1.452       .  S
C1626      H1660   1.082       .  S
C1626      N1654   1.333       .  A
C1629      C1673   1.471       .  S
C1629      N1650   1.355       .  A
N1631      C1657   1.335       .  A
N1631      N1633   1.321       .  A
N1632      C1646   1.339       .  A
N1633      N1661   1.324       .  A
H1634      C1657   1.081       .  S
H1635      C1652   1.082       .  S
N1637     Co1651   2.081       .  S
C1639      C1653   1.464       .  S
C1639      N1643   1.345       .  A
C1640      C1659   1.471       .  S
C1640      H1644   1.081       .  S
N1641      C1652   1.339       .  A
C1645      C1657   1.457       .  S
C1645      C1682   1.474       .  S
C1645      N1661   1.353       .  A
Co1647    Cl1658   2.477       .  S
N1648      C1659   1.344       .  A
Co1651    Cl1658   2.426       .  S
C1662      C1663   1.419       .  A
C1662      C1667   1.419       .  A
C1662      C2051   1.520       .  S
C1663      C1664   1.400       .  A
C1663      H1668   1.074       .  S
C1664      C1665   1.391       .  A
C1665      C1666   1.393       .  A
C1665      H1669   1.078       .  S
C1666      C1667   1.404       .  A
C1666      C1713   1.476       .  S
C1667      H1670   1.078       .  S
C1671      C1672   1.413       .  A
C1671      C1676   1.411       .  A
C1671      C2038   1.498       .  S
C1672      C1673   1.404       .  A
C1672      H1677   1.083       .  S
C1673      C1674   1.399       .  A
C1674      C1675   1.397       .  A
C1674      H1678   1.085       .  S
C1675      C1676   1.403       .  A
C1675      C1698   1.468       .  S
C1676      H1679   1.083       .  S
C1680      C1681   1.404       .  A
C1680      C1685   1.405       .  A
C1680      C2028   1.487       .  S
C1681      C1682   1.401       .  A
C1681      H1686   1.081       .  S
C1682      C1683   1.398       .  A
C1683      C1684   1.402       .  A
C1683      H1687   1.082       .  S
C1684      C1685   1.405       .  A
C1684      C1718   1.472       .  S
C1685      H1688   1.083       .  S
C1689      C1690   1.413       .  A
C1689      C1694   1.406       .  A
C1689      C2018   1.491       .  S
C1690      C1691   1.405       .  A
C1690      H1695   1.084       .  S
C1691      C1692   1.401       .  A
C1692      C1693   1.403       .  A
C1692      H1696   1.085       .  S
C1693      C1694   1.405       .  A
C1693      C1738   1.470       .  S
C1694      H1697   1.084       .  S
C1698      C1735   1.453       .  S
C1698      N1716   1.353       .  A
N1699      N1716   1.328       .  A
N1699      N1721   1.319       .  A
N1699     Co1736   2.095       .  S
C1700      C1738   1.468       .  S
C1700      H1745   1.081       .  S
C1700      N1725   1.347       .  A
H1701      C1742   1.080       .  S
C1702      C1706   1.453       .  S
C1702      H1731   1.082       .  S
C1702      N1726   1.334       .  A
Co1703     N1721   2.068       .  S
Co1703     N1711   2.090       .  S
Co1703     N1743   2.084       .  S
Co1703     N1719   2.070       .  S
Co1703    Cl1747   2.425       .  S
N1704      C1742   1.331       .  A
N1704      N1711   1.320       .  A
N1704     Co1705   2.064       .  S
Co1705     N1708   2.103       .  S
Co1705     N1725   2.098       .  S
Co1705     N1712   2.073       .  S
Co1705    Cl1747   2.476       .  S
C1706      N1744   1.356       .  A
N1707      N1714   1.319       .  A
N1707      N1737   1.323       .  A
N1707     Co1740   2.085       .  S
N1708      N1726   1.318       .  A
N1708      N1744   1.330       .  A
N1709      C1738   1.344       .  A
N1709      N1719   1.320       .  A
H1710      C1735   1.082       .  S
N1711      N1732   1.326       .  A
N1712      N1730   1.320       .  A
N1712      N1717   1.325       .  A
C1713      C1741   1.462       .  S
C1713      N1717   1.350       .  A
N1714      C1729   1.339       .  A
N1714     Co1736   2.072       .  S
C1715      C1718   1.460       .  S
C1715      H1749   1.081       .  S
C1715      N1743   1.337       .  A
C1718      N1739   1.350       .  A
N1719      N1725   1.319       .  A
N1720      C1746   1.346       .  A
N1720      N1722   1.319       .  A
N1720     Co1736   2.097       .  S
N1721      C1735   1.336       .  A
N1722      N1750   1.323       .  A
N1722     Co1740   2.078       .  S
H1723      C1746   1.081       .  S
H1724      C1741   1.081       .  S
N1726     Co1740   2.068       .  S
N1727      N1739   1.324       .  A
N1727      N1743   1.320       .  A
N1727     Co1736   2.074       .  S
C1728      C1742   1.458       .  S
C1728      N1732   1.352       .  A
C1729      C1748   1.460       .  S
C1729      H1733   1.081       .  S
N1730      C1741   1.334       .  A
N1730     Co1740   2.085       .  S
C1734      C1746   1.465       .  S
C1734      N1750   1.347       .  A
Co1736    Cl1747   2.474       .  S
N1737      C1748   1.349       .  A
Co1740    Cl1747   2.422       .  S
C1751      C1752   1.372       .  D
C1751      C2011   1.493       .  S
C1752      C2068   1.500       .  S
C1753      C1754   1.377   1_556  D
C1753      C1981   1.499       .  S
C1754      C2048   1.492       .  S
C1755      C1756   1.370       .  D
C1755      C2031   1.493       .  S
C1756      C1958   1.500       .  S
C1757      C1758   1.399   1_554  D
C1757      C2081   1.484       .  S
C1758      C1948   1.562       .  S
C1759      C1760   1.403       .  A
C1759      C1764   1.397       .  A
C1759      C1951   1.471       .  S
C1760      C1761   1.407       .  A
C1760      H1765   1.083       .  S
C1761      C1762   1.403       .  A
C1761      C1934   1.475       .  S
C1762      C1763   1.400       .  A
C1762      H1766   1.082       .  S
C1763      C1764   1.399       .  A
C1763      C1813   1.469       .  S
C1764      H1767   1.084       .  S
C1768      C1769   1.414       .  A
C1768      C1773   1.413       .  A
C1768      C1988   1.501       .  S
C1769      C1770   1.404       .  A
C1769      H1774   1.083       .  S
C1770      C1771   1.397       .  A
C1770      C1833   1.473       .  S
C1771      C1772   1.399       .  A
C1771      H1775   1.085       .  S
C1772      C1773   1.406       .  A
C1772      C1884   1.470       .  S
C1773      H1776   1.083       .  S
C1777      C1778   1.408       .  A
C1777      C1782   1.406       .  A
C1777      C1938   1.492       .  S
C1778      C1779   1.406       .  A
C1778      H1783   1.083       .  S
C1779      C1780   1.401       .  A
C1779      C1904   1.476       .  S
C1780      C1781   1.399       .  A
C1780      H1784   1.082       .  S
C1781      C1782   1.402       .  A
C1781      C1849   1.475       .  S
C1782      H1785   1.081       .  S
C1786      C1787   1.412       .  A
C1786      C1791   1.413       .  A
C1786      C1978   1.505       .  S
C1787      C1788   1.400       .  A
C1787      H1792   1.082       .  S
C1788      C1789   1.400       .  A
C1788      C1920   1.469       .  S
C1789      C1790   1.402       .  A
C1789      H1793   1.084       .  S
C1790      C1791   1.405       .  A
C1790      C1863   1.473       .  S
C1791      H1794   1.082       .  S
C1795      C1796   1.412       .  A
C1795      C1800   1.409       .  A
C1795      C1961   1.498       .  S
C1796      C1797   1.404       .  A
C1796      H1801   1.083       .  S
C1797      C1798   1.400       .  A
C1797      C1828   1.473       .  S
C1798      C1799   1.400       .  A
C1798      H1802   1.085       .  S
C1799      C1800   1.402       .  A
C1799      C1924   1.467       .  S
C1800      H1803   1.083       .  S
C1804      C1805   1.401       .  A
C1804      C1809   1.400       .  A
C1804      C2001   1.488       .  S
C1805      C1806   1.406       .  A
C1805      H1810   1.081       .  S
C1806      C1807   1.404       .  A
C1806      C1914   1.476       .  S
C1807      C1808   1.404       .  A
C1807      H1811   1.083       .  S
C1808      C1809   1.404       .  A
C1808      C1853   1.476       .  S
C1809      H1812   1.080       .  S
C1813      C1850   1.460       .  S
C1813      N1831   1.348       .  A
N1814      N1831   1.321       .  A
N1814      N1836   1.320       .  A
N1814     Co1851   2.069       .  S
C1815      C1853   1.458       .  S
C1815      H1860   1.081       .  S
C1815      N1840   1.333       .  A
H1816      C1857   1.081       .  S
C1817      C1821   1.461       .  S
C1817      H1846   1.081       .  S
C1817      N1841   1.335       .  A
Co1818     N1836   2.085       .  S
Co1818     N1826   2.077       .  S
Co1818     N1858   2.076       .  S
Co1818     N1834   2.094       .  S
Co1818    Cl1862   2.429       .  S
N1819      C1857   1.348       .  A
N1819      N1826   1.319       .  A
N1819     Co1820   2.095       .  S
Co1820     N1823   2.070       .  S
Co1820     N1840   2.066       .  S
Co1820     N1827   2.097       .  S
Co1820    Cl1862   2.473       .  S
C1821      C1879   1.472       .  S
C1821      N1859   1.349       .  A
N1822      N1829   1.319       .  A
N1822      N1852   1.322       .  A
N1822     Co1855   2.080       .  S
N1823      N1841   1.320       .  A
N1823      N1859   1.323       .  A
N1824      C1853   1.353       .  A
N1824      N1834   1.326       .  A
H1825      C1850   1.081       .  S
N1826      N1847   1.321       .  A
N1827      N1845   1.319       .  A
N1827      N1832   1.328       .  A
C1828      C1856   1.456       .  S
C1828      N1832   1.353       .  A
N1829      C1844   1.347       .  A
N1829     Co1851   2.096       .  S
C1830      C1833   1.455       .  S
C1830      H1864   1.082       .  S
C1830      N1858   1.336       .  A
C1833      N1854   1.353       .  A
N1834      N1840   1.320       .  A
N1835      C1861   1.338       .  A
N1835      N1837   1.320       .  A
N1835     Co1851   2.071       .  S
N1836      C1850   1.339       .  A
N1837      N1865   1.323       .  A
N1837     Co1855   2.090       .  S
H1838      C1861   1.081       .  S
H1839      C1856   1.082       .  S
N1841     Co1855   2.083       .  S
N1842      N1854   1.329       .  A
N1842      N1858   1.320       .  A
N1842     Co1851   2.096       .  S
C1843      C1857   1.467       .  S
C1843      C1868   1.472       .  S
C1843      N1847   1.346       .  A
C1844      C1863   1.466       .  S
C1844      H1848   1.081       .  S
N1845      C1856   1.337       .  A
N1845     Co1855   2.077       .  S
C1849      C1861   1.460       .  S
C1849      N1865   1.351       .  A
Co1851    Cl1862   2.473       .  S
N1852      C1863   1.348       .  A
Co1855    Cl1862   2.427       .  S
C1866      C1867   1.414       .  A
C1866      C1871   1.414       .  A
C1866      C1971   1.505       .  S
C1867      C1868   1.404       .  A
C1867      H1872   1.082       .  S
C1868      C1869   1.400       .  A
C1869      C1870   1.399       .  A
C1869      H1873   1.085       .  S
C1870      C1871   1.405       .  A
C1870      C1892   1.473       .  S
C1871      H1874   1.082       .  S
C1875      C1876   1.409       .  A
C1875      C1880   1.407       .  A
C1875      C2008   1.488       .  S
C1876      C1877   1.404       .  A
C1876      H1881   1.083       .  S
C1877      C1878   1.397       .  A
C1877      C1899   1.473       .  S
C1878      C1879   1.395       .  A
C1878      H1882   1.079       .  S
C1879      C1880   1.400       .  A
C1880      H1883   1.083       .  S
C1884      C1921   1.449       .  S
C1884      N1902   1.355       .  A
N1885      N1902   1.330       .  A
N1885      N1907   1.319       .  A
C1886      C1924   1.467       .  S
C1886      H1931   1.081       .  S
C1886      N1911   1.347       .  A
H1887      C1928   1.081       .  S
C1888      C1892   1.451       .  S
C1888      H1917   1.082       .  S
C1888      N1912   1.336       .  A
Co1889     N1929   2.095       .  S
Co1889     N1905   2.061       .  S
N1890      C1928   1.333       .  A
N1890      N1897   1.321       .  A
Co1891     N1898   2.069       .  S
Co1891    Cl1933   2.477       .  S
C1892      N1930   1.356       .  A
N1893      N1900   1.321       .  A
N1893      N1923   1.322       .  A
N1894      N1912   1.318       .  A
N1894      N1930   1.329       .  A
N1895      C1924   1.343       .  A
N1895      N1905   1.319       .  A
H1896      C1921   1.082       .  S
N1897      N1918   1.327       .  A
N1898      N1916   1.320       .  A
N1898      N1903   1.324       .  A
C1899      C1927   1.461       .  S
C1899      N1903   1.349       .  A
N1900      C1915   1.341       .  A
C1901      C1904   1.463       .  S
C1901      H1935   1.081       .  S
C1901      N1929   1.339       .  A
C1904      N1925   1.349       .  A
N1905      N1911   1.318       .  A
N1906      C1932   1.347       .  A
N1906      N1908   1.317       .  A
N1906     Co1922   2.102       .  S
N1907      C1921   1.334       .  A
N1908      N1936   1.320       .  A
N1908     Co1926   2.060       .  S
H1909      C1932   1.081       .  S
H1910      C1927   1.080       .  S
N1913      N1925   1.324       .  A
N1913      N1929   1.321       .  A
C1914      C1928   1.457       .  S
C1914      N1918   1.354       .  A
C1915      C1934   1.460       .  S
C1915      H1919   1.081       .  S
N1916      C1927   1.335       .  A
N1916     Co1926   2.088       .  S
C1920      C1932   1.469       .  S
C1920      N1936   1.343       .  A
Co1922    Cl1933   2.478       .  S
N1923      C1934   1.351       .  A
Co1926    Cl1933   2.419       .  S
C1937      C1938   1.413       .  A
C1937      C1942   1.404       .  A
C1937      F1944   1.357       .  S
C1938      C1939   1.410       .  A
C1939      C1940   1.392       .  A
C1939      F1946   1.358       .  S
C1940      C1941   1.408       .  A
C1940      F1945   1.359       .  S
C1941      C1942   1.405       .  A
C1947      C1948   1.427       .  A
C1947      C1952   1.399       .  A
C1947      F1954   1.343       .  S
C1948      C1949   1.431       .  A
C1949      C1950   1.397       .  A
C1949      F1956   1.357       .  S
C1950      C1951   1.394       .  A
C1950      F1955   1.358       .  S
C1951      C1952   1.392       .  A
C1952      F1953   1.359       .  S
C1957      C1958   1.405       .  A
C1957      C1962   1.398       .  A
C1957      F1964   1.358       .  S
C1958      C1959   1.410       .  A
C1959      C1960   1.402       .  A
C1959      F1966   1.357       .  S
C1960      C1961   1.411       .  A
C1960      F1965   1.358       .  S
C1961      C1962   1.413       .  A
C1962      F1963   1.358       .  S
C1967      C1968   1.407       .  A
C1967      C1972   1.403   1_455  A
C1968      C1969   1.402   1_455  A
C1969      C1970   1.399       .  A
C1969      F1976   1.358       .  S
C1970      C1971   1.417       .  A
C1970      F1975   1.357       .  S
C1971      C1972   1.414       .  A
C1972      F1973   1.357       .  S
C1977      C1978   1.414       .  A
C1977      C1982   1.397       .  A
C1977      F1984   1.357       .  S
C1978      C1979   1.418       .  A
C1979      C1980   1.401       .  A
C1979      F1986   1.357       .  S
C1980      C1981   1.402       .  A
C1980      F1985   1.358       .  S
C1981      C1982   1.404       .  A
C1982      F1983   1.354       .  S
C1987      C1988   1.412       .  A
C1987      C1992   1.397       .  A
C1987      F1994   1.358       .  S
C1988      C1989   1.412       .  A
C1989      C1990   1.406       .  A
C1989      F1996   1.357       .  S
C1990      C1991   1.409       .  A
C1990      F1995   1.357   1_655  S
C1991      C1992   1.406       .  A
C1992      F1993   1.358       .  S
C1997      C1998   1.406       .  A
C1997      C2002   1.392       .  A
C1998      C1999   1.407       .  A
C1999      C2000   1.400       .  A
C1999      F2006   1.357       .  S
C2000      C2001   1.411       .  A
C2000      F2005   1.358       .  S
C2001      C2002   1.409       .  A
C2002      F2003   1.358       .  S
C2007      C2008   1.409       .  A
C2007      C2012   1.392       .  A
C2007      F2014   1.358       .  S
C2008      C2009   1.411       .  A
C2009      C2010   1.401       .  A
C2009      F2016   1.358       .  S
C2010      C2011   1.407       .  A
C2010      F2015   1.357       .  S
C2011      C2012   1.405       .  A
C2012      F2013   1.358       .  S
C2017      C2018   1.397       .  A
C2017      C2022   1.393       .  A
C2017      F2024   1.359       .  S
C2018      C2019   1.404       .  A
C2019      C2020   1.411       .  A
C2019      F2026   1.357       .  S
C2020      C2021   1.424       .  A
C2020      F2025   1.354       .  S
C2021      C2022   1.425       .  A
C2027      C2028   1.410       .  A
C2027      C2032   1.403       .  A
C2027      F2034   1.357       .  S
C2028      C2029   1.408       .  A
C2029      C2030   1.391       .  A
C2029      F2036   1.358       .  S
C2030      C2031   1.406       .  A
C2030      F2035   1.358       .  S
C2031      C2032   1.407       .  A
C2032      F2033   1.357       .  S
C2037      C2038   1.411       .  A
C2037      C2042   1.402       .  A
C2037      F2044   1.358       .  S
C2038      C2039   1.413       .  A
C2039      C2040   1.398       .  A
C2039      F2046   1.358       .  S
C2040      C2041   1.405       .  A
C2041      C2042   1.409       .  A
C2042      F2043   1.357       .  S
C2047      C2048   1.397       .  A
C2047      C2052   1.396       .  A
C2047      F2054   1.358       .  S
C2048      C2049   1.399       .  A
C2049      C2050   1.399       .  A
C2049      F2056   1.359       .  S
C2050      C2051   1.425       .  A
C2050      F2055   1.353       .  S
C2051      C2052   1.422       .  A
C2052      F2053   1.356       .  S
C2057      C2058   1.397       .  A
C2057      C2062   1.388   1_655  A
C2057      F2064   1.359   1_655  S
C2058      C2059   1.407       .  A
C2059      C2060   1.403       .  A
C2059      F2066   1.358       .  S
C2060      C2061   1.414       .  A
C2060      F2065   1.356       .  S
C2061      C2062   1.419   1_655  A
C2067      C2068   1.405       .  A
C2067      C2072   1.398       .  A
C2067      F2074   1.358       .  S
C2068      C2069   1.409       .  A
C2069      C2070   1.403       .  A
C2069      F2076   1.357       .  S
C2070      C2071   1.411       .  A
C2070      F2075   1.358       .  S
C2071      C2072   1.412       .  A
C2072      F2073   1.358       .  S
C2077      C2078   1.419       .  A
C2077      C2082   1.403       .  A
C2077      F2084   1.357       .  S
C2078      C2079   1.418       .  A
C2079      C2080   1.397       .  A
C2079      F2086   1.356       .  S
C2080      C2081   1.405       .  A
C2080      F2085   1.359       .  S
C2081      C2082   1.404       .  A
C2082      F2083   1.358       .  S
C2087      C2088   1.411       .  A
C2087      C2092   1.397       .  A
C2087      F2094   1.358       .  S
C2088      C2089   1.410   1_655  A
C2089      C2090   1.393       .  A
C2089      F2096   1.358       .  S
C2090      C2091   1.404       .  A
C2091      C2092   1.405   1_455  A
C2092      F2093   1.357       .  S
