geometry optimzed in LAMMPS
_audit_creation_date              2020-12-01 
_audit_creation_method            'lammps2cif' 
_symmetry_space_group_name_H-M    'P1' 
_symmetry_Int_Tables_number       1 
_symmetry_cell_setting            triclinic 
loop_ 
_symmetry_equiv_pos_as_xyz 
  x,y,z 
_cell_length_a                    48.64480267 
_cell_length_b                    48.653856072965986 
_cell_length_c                    49.101380154768954 
_cell_angle_alpha                 90.15681914669871 
_cell_angle_beta                  89.69298145982543 
_cell_angle_gamma                 119.95380310794583 
loop_ 
_atom_site_label 
_atom_site_type_symbol 
_atom_site_fract_x 
_atom_site_fract_y 
_atom_site_fract_z 
_atom_site_charge 
O1          O  0.09507073  0.10606771  0.06014593    -0.57000
C2          C  0.15060128  0.09751539  0.11706236     0.75600
O3          O  0.16320930  0.08250394  0.02587352    -0.58200
C4          C  0.09341702  0.10722569  0.03442877     0.75600
C5          C  0.19576012  0.17901613  0.05683997     0.78000
Cd6        Cd  0.14847204  0.11160729  0.06045894     1.37500
O7          O  0.12700271  0.09852178  0.10737088    -0.57000
O8          O  0.20360722  0.15799417  0.05318012    -0.55800
C9          C  0.14414004  0.05531854  0.03571077     0.78000
O10         O  0.16671492  0.16878738  0.06171900    -0.58200
O11         O  0.17342036  0.10432295  0.10083397    -0.56600
O12         O  0.11726910  0.11060882  0.02109967    -0.56600
O13         O  0.12890813  0.05509733  0.05668046    -0.55800
O14         O  0.09821004  0.49984278  0.28502061    -0.57000
C15         C  0.15189550  0.06115691  0.22887396     0.75600
O16         O  0.16655764  0.08453368  0.32452118    -0.58200
C17         C  0.09624329  0.49656461  0.31071632     0.75600
C18         C  0.19529583  0.02017002  0.28766306     0.78000
Cd19       Cd  0.15270138  0.04624123  0.28545394     1.37500
O20         O  0.12651260  0.04558114  0.24250187    -0.57000
O21         O  0.16556077  0.00292559  0.28555540    -0.55800
C22         C  0.15554363  0.10047012  0.31335054     0.78000
O23         O  0.20570677  0.04982023  0.28937536    -0.58200
O24         O  0.17760590  0.06854916  0.24098705    -0.56600
O25         O  0.11988585  0.01684387  0.32417842    -0.56600
O26         O  0.14749981  0.09381093  0.28876484    -0.55800
O27         O  0.48758211  0.10445725  0.39416038    -0.57000
C28         C  0.05456180  0.15461038  0.45059364     0.75600
O29         O  0.08159811  0.17267671  0.35986470    -0.58200
C30         C  0.48574965  0.10185826  0.36847644     0.75600
C31         C  0.01543616  0.20152633  0.39207652     0.78000
Cd32       Cd  0.03768326  0.15573910  0.39477936     1.37500
O33         O  0.03453507  0.12952094  0.43851242    -0.57000
O34         O  0.00019058  0.17494969  0.40383690    -0.55800
C35         C  0.09181653  0.15523830  0.36945784     0.78000
O36         O  0.04225797  0.20811275  0.38223464    -0.58200
O37         O  0.06525220  0.18020427  0.43718710    -0.56600
O38         O  0.00817254  0.12388528  0.35530173    -0.56600
O39         O  0.07846531  0.14038636  0.39102170    -0.55800
O40         O  0.09566987  0.13191559  0.57205152    -0.57000
C41         C  0.10399672  0.10009124  0.64398497     0.75600
O42         O  0.15712183  0.21132677  0.62529629    -0.58200
C43         C  0.09823479  0.15637517  0.56050054     0.75600
C44         C  0.05672394  0.15603111  0.64297230     0.78000
Cd45       Cd  0.11100709  0.15641384  0.61770669     1.37500
O46         O  0.10379835  0.10189754  0.61821882    -0.57000
O47         O  0.05621599  0.14593031  0.61916263    -0.55800
C48         C  0.17817613  0.20331435  0.62315003     0.78000
O49         O  0.08353298  0.16945021  0.65459774    -0.58200
O50         O  0.10700276  0.12393050  0.65692959    -0.56600
O51         O  0.10816649  0.18094908  0.57516332    -0.56600
O52         O  0.16804137  0.17422592  0.61873918    -0.55800
O53         O  0.48321726  0.10139457  0.95499580    -0.57000
C54         C  0.42366186  0.09676017  0.89505597     0.75600
O55         O  0.39107390  0.07893580  0.98433236    -0.58200
C56         C  0.48647521  0.10485547  0.98060946     0.75600
C57         C  0.45981022  0.17557361  0.95797735     0.78000
Cd58       Cd  0.43665489  0.10823143  0.95234261     1.37500
O59         O  0.44738238  0.09710641  0.90598614    -0.57000
O60         O  0.47662741  0.16397914  0.95004812    -0.55800
C61         C  0.38532277  0.05181345  0.97603220     0.78000
O62         O  0.43085487  0.15575404  0.96306053    -0.58200
O63         O  0.40634918  0.10256512  0.91066420    -0.56600
O64         O  0.46625785  0.10940733  0.99309288    -0.56600
O65         O  0.40175900  0.05145172  0.95618544    -0.55800
O66         O  0.40206559  0.04483571  0.76966651    -0.57000
C67         C  0.38597587  0.49587896  0.70039096     0.75600
O68         O  0.33327659  0.05334246  0.71597130    -0.58200
C69         C  0.39537169  0.06417951  0.78114018     0.75600
C70         C  0.43610543  0.09802594  0.69700167     0.78000
Cd71       Cd  0.38120771  0.04718060  0.72476172     1.37500
O72         O  0.38693340  0.49890885  0.72612445    -0.57000
O73         O  0.43563137  0.09217128  0.72208601    -0.55800
C74         C  0.31336254  0.02447589  0.72120687     0.78000
O75         O  0.40977509  0.08256546  0.68479429    -0.58200
O76         O  0.38246899  0.01604259  0.68698681    -0.56600
O77         O  0.38140864  0.07500807  0.76668930    -0.56600
O78         O  0.32499949  0.00739185  0.72798095    -0.55800
O79         O  0.38056484  0.99309210  0.28689783    -0.57000
C80         C  0.32632508  0.43360040  0.22809211     0.75600
O81         O  0.31328693  0.40457152  0.32069416    -0.58200
C82         C  0.38027556  0.99793370  0.31224179     0.75600
C83         C  0.28077850  0.46865565  0.28568943     0.78000
Cd84       Cd  0.32637831  0.44661725  0.28505815     1.37500
O85         O  0.35093770  0.45500458  0.23984752    -0.57000
O86         O  0.30902739  0.48504946  0.27732938    -0.55800
C87         C  0.32825693  0.39277770  0.30875629     0.78000
O88         O  0.27280248  0.44096512  0.29414883    -0.58200
O89         O  0.30163683  0.41889373  0.24274661    -0.56600
O90         O  0.35520001  0.47857568  0.32496595    -0.56600
O91         O  0.33945744  0.40410313  0.28557058    -0.55800
O92         O  0.35696895  0.40941297  0.10248200    -0.57000
C93         C  0.38487530  0.38440052  0.03316522     0.75600
O94         O  0.27730068  0.33511279  0.05166683    -0.58200
C95         C  0.33123453  0.39980288  0.11560553     0.75600
C96         C  0.32887379  0.43378480  0.03153822     0.78000
Cd97       Cd  0.33082193  0.38236696  0.05937758     1.37500
O98         O  0.38447302  0.38880328  0.05860653    -0.57000
O99         O  0.33836704  0.43579686  0.05570256    -0.55800
C100        C  0.28544685  0.31487727  0.05800927     0.78000
O101        O  0.31711508  0.40662072  0.02060617    -0.58200
O102        O  0.36049606  0.37951887  0.02017095    -0.56600
O103        O  0.30593341  0.38132783  0.10300441    -0.56600
O104        O  0.31394908  0.32610543  0.06534303    -0.55800
O105        O  0.03781807  0.39811654  0.90998618    -0.57000
C106        C  0.49265499  0.38592912  0.98074278     0.75600
O107        O  0.04681313  0.33232474  0.96774170    -0.58200
C108        C  0.05819423  0.39304351  0.89834170     0.75600
C109        C  0.09473840  0.43630629  0.98074421     0.78000
Cd110      Cd  0.04319164  0.38078545  0.95537917     1.37500
O111        O  0.49462067  0.38466742  0.95505489    -0.57000
O112        O  0.08520684  0.43669996  0.95695123    -0.55800
C113        C  0.01830873  0.31287213  0.96107309     0.78000
O114        O  0.08309556  0.40924170  0.99195288    -0.58200
O115        O  0.01459579  0.38599265  0.99424351    -0.56600
O116        O  0.07124888  0.38141810  0.91304264    -0.56600
O117        O  0.00246324  0.32498752  0.95211535    -0.55800
O118        O  0.09155068  0.45116268  0.77409226    -0.57000
C119        C  0.10342670  0.99477272  0.70001262     0.75600
O120        O  0.15660699  0.44083794  0.71745421    -0.58200
C121        C  0.09228656  0.42791616  0.78491575     0.75600
C122        C  0.05287573  0.39357060  0.70053038     0.78000
Cd123      Cd  0.10744580  0.44446202  0.72784850     1.37500
O124        O  0.10123772  0.99213793  0.72575638    -0.57000
O125        O  0.05082169  0.40740249  0.72160468    -0.55800
C126        C  0.17593741  0.46946650  0.72394387     0.78000
O127        O  0.08077079  0.40115888  0.69282916    -0.58200
O128        O  0.10721992  0.47404746  0.68750149    -0.56600
O129        O  0.10084088  0.41260390  0.76944329    -0.56600
O130        O  0.16346146  0.48523781  0.73252962    -0.55800
O131        O  0.39711914  0.36068647  0.57040746    -0.57000
C132        C  0.38768448  0.39185384  0.64430897     0.75600
O133        O  0.33425870  0.28484632  0.62767041    -0.58200
C134        C  0.39556453  0.33647923  0.55908628     0.75600
C135        C  0.43600918  0.33831217  0.64193052     0.78000
Cd136      Cd  0.38175586  0.33721508  0.61623067     1.37500
O137        O  0.38901550  0.39122822  0.61850987    -0.57000
O138        O  0.43710365  0.34846476  0.61805386    -0.55800
C139        C  0.31389416  0.29263675  0.62092188     0.78000
O140        O  0.40883724  0.32462659  0.65314602    -0.58200
O141        O  0.38430978  0.36759951  0.65661039    -0.56600
O142        O  0.38682679  0.31236307  0.57418292    -0.56600
O143        O  0.32498910  0.32039836  0.61164579    -0.55800
O144        O  0.44563581  0.35893865  0.43221295    -0.57000
C145        C  0.49170930  0.38737657  0.36248459     0.75600
O146        O  0.43540516  0.27807933  0.38286099    -0.58200
C147        C  0.42721684  0.33383231  0.44520389     0.75600
C148        C  0.38831173  0.33230898  0.36093340     0.78000
Cd149      Cd  0.44121071  0.33218376  0.38815364     1.37500
O150        O  0.48881483  0.38516978  0.38819022    -0.57000
O151        O  0.39800483  0.34358579  0.38437566    -0.55800
C152        C  0.46469623  0.28751928  0.38613176     0.78000
O153        O  0.40123396  0.31776785  0.35020432    -0.58200
O154        O  0.47125344  0.36397860  0.34895167    -0.56600
O155        O  0.41568207  0.30814886  0.43184467    -0.56600
O156        O  0.48236560  0.31696019  0.38988659    -0.55800
C157        C  0.40375758  0.33626068  0.52986721    -0.04600
C158        C  0.40064295  0.30837204  0.51832093    -0.32100
C159        C  0.40836509  0.30734757  0.49094875     0.37200
C160        C  0.41943260  0.33449397  0.47438116    -0.05000
C161        C  0.42285996  0.36249212  0.48590778    -0.32000
C162        C  0.41516252  0.36355279  0.51332308     0.37100
H163        H  0.39223683  0.28714869  0.53055704     0.17400
O164        O  0.40520168  0.27966922  0.48068882    -0.59500
H165        H  0.43124189  0.38362882  0.47354996     0.17500
O166        O  0.41856928  0.39133894  0.52355272    -0.59600
H167        H  0.44104450  0.40378168  0.52938370     0.44500
H168        H  0.42539323  0.28030137  0.48518384     0.44400
C169        C  0.02386439  0.37187498  0.68500521    -0.04600
C170        C  0.99478463  0.35481735  0.69891120    -0.32100
C171        C  0.46584031  0.34100736  0.68486716     0.37200
C172        C  0.46551422  0.34472897  0.65639427    -0.05000
C173        C  0.49469108  0.35935540  0.64227408    -0.32000
C174        C  0.02367672  0.37281457  0.65633961     0.37100
H175        H  0.99440534  0.35368352  0.72095745     0.17400
O176        O  0.43811911  0.32633262  0.69956057    -0.59500
H177        H  0.49519921  0.36225511  0.62037560     0.17500
O178        O  0.05151263  0.38913290  0.64195241    -0.59600
H179        H  0.05530808  0.41105905  0.64035550     0.44500
H180        H  0.43199891  0.30358149  0.69991325     0.44400
C181        C  0.06666982  0.40116562  0.86924658    -0.04600
C182        C  0.06111092  0.42399726  0.85706304    -0.32100
C183        C  0.06965366  0.43318290  0.82992104     0.37200
C184        C  0.08348323  0.41899724  0.81399827    -0.05000
C185        C  0.08859483  0.39573883  0.82610620    -0.32000
C186        C  0.08065258  0.38706164  0.85351560     0.37100
H187        H  0.05051035  0.43526400  0.86877174     0.17400
O188        O  0.06374722  0.45566909  0.81910596    -0.59500
H189        H  0.09897666  0.38430327  0.81435276     0.17500
O190        O  0.08568117  0.36401428  0.86440397    -0.60800
H191        H  0.10830528  0.37515895  0.86982400     0.44500
H192        H  0.08273537  0.47632201  0.82353850     0.44400
C193        C  0.46564543  0.38652182  0.99427879    -0.04600
C194        C  0.43997186  0.38282743  0.97858919    -0.32100
C195        C  0.41348237  0.38190579  0.99085105     0.37200
C196        C  0.41234633  0.38494530  0.01940729    -0.05000
C197        C  0.43801685  0.38863617  0.03506963    -0.32000
C198        C  0.46437415  0.38930576  0.02283734     0.37100
H199        H  0.44018137  0.38026193  0.95667439     0.17400
O200        O  0.38868760  0.37746748  0.97468063    -0.59500
H201        H  0.43768797  0.39087635  0.05701118     0.17500
O202        O  0.48885777  0.39304279  0.03908719    -0.59600
H203        H  0.48273506  0.37139522  0.04538226     0.44500
H204        H  0.39429153  0.39910691  0.96832111     0.44400
C205        C  0.36502093  0.33856742  0.34676103    -0.04600
C206        C  0.34761230  0.34907854  0.36224165    -0.32100
C207        C  0.33258647  0.36402677  0.34992705     0.37200
C208        C  0.33508472  0.36908664  0.32156058    -0.05000
C209        C  0.34944432  0.35537069  0.30580732    -0.32000
C210        C  0.36415112  0.34005598  0.31813691     0.37100
H211        H  0.34745140  0.34771600  0.38426953     0.17400
O212        O  0.31847918  0.37647899  0.36616516    -0.59500
H213        H  0.35122519  0.35840229  0.28389549     0.17500
O214        O  0.38038889  0.32975935  0.30210393    -0.59600
H215        H  0.36496786  0.30742647  0.29796568     0.44500
H216        H  0.29776316  0.35815390  0.37152833     0.44400
C217        C  0.32674102  0.42578729  0.19892307    -0.04600
C218        C  0.35374104  0.44478100  0.18292143    -0.32100
C219        C  0.35556470  0.43694575  0.15573053     0.37200
C220        C  0.33027911  0.40939780  0.14412972    -0.05000
C221        C  0.30301250  0.39092293  0.15991616    -0.32000
C222        C  0.30099824  0.39892663  0.18694085     0.37100
H223        H  0.37363038  0.46581576  0.19149538     0.17400
O224        O  0.38207276  0.45652643  0.14071787    -0.59500
H225        H  0.28315826  0.36982128  0.15138885     0.17500
O226        O  0.27409917  0.37961892  0.20163322    -0.59600
H227        H  0.25888334  0.38682951  0.19705955     0.44500
H228        H  0.37761678  0.47261243  0.13270547     0.44400
C229        C  0.38927064  0.41911623  0.65926359    -0.04600
C230        C  0.39239477  0.44517546  0.64455640    -0.32100
C231        C  0.39211016  0.47048368  0.65776697     0.37200
C232        C  0.38832071  0.47009057  0.68634703    -0.05000
C233        C  0.38609029  0.44444995  0.70122460    -0.32000
C234        C  0.38663800  0.41916429  0.68797005     0.37100
H235        H  0.39472573  0.44588001  0.62257626     0.17400
O236        O  0.39513260  0.49529924  0.64232193    -0.59500
H237        H  0.38334229  0.44367497  0.72316781     0.17500
O238        O  0.38360665  0.39425485  0.70328822    -0.59600
H239        H  0.40563479  0.39973190  0.70774472     0.44500
H240        H  0.41815437  0.51093756  0.64215060     0.44400
C241        C  0.27829835  0.01088914  0.71993449    -0.04600
C242        C  0.26483734  0.03030565  0.72359877    -0.32100
C243        C  0.23171293  0.01725010  0.72460548     0.37200
C244        C  0.21119773  0.48405163  0.72181978    -0.05000
C245        C  0.22478108  0.46492864  0.71690913    -0.32000
C246        C  0.25787333  0.47801838  0.71592722     0.37100
H247        H  0.28001686  0.05565161  0.72626136     0.17400
O248        O  0.21973013  0.03730439  0.72775152    -0.59500
H249        H  0.20972214  0.43960548  0.71403406     0.17500
O250        O  0.26997553  0.45851739  0.71013950    -0.59600
H251        H  0.26926343  0.44801051  0.72761916     0.44500
H252        H  0.22044064  0.04136521  0.74760275     0.44400
C253        C  0.00367691  0.27777631  0.96296349    -0.04600
C254        C  0.47047530  0.25862079  0.96314826    -0.32100
C255        C  0.45564139  0.22537801  0.96255465     0.37200
C256        C  0.47411799  0.21052045  0.96099509    -0.05000
C257        C  0.00727449  0.22966062  0.96158902    -0.32000
C258        C  0.02208637  0.26283206  0.96291873     0.37100
H259        H  0.45574013  0.26951211  0.96347740     0.17400
O260        O  0.42314750  0.20784346  0.96223634    -0.59500
H261        H  0.02208148  0.21886268  0.96076124     0.17500
O262        O  0.05457915  0.28036212  0.96262943    -0.59600
H263        H  0.06102601  0.28084906  0.98187489     0.44500
H264        H  0.41664625  0.20423507  0.98172945     0.44400
C265        C  0.36256057  0.02178806  0.98962412    -0.04600
C266        C  0.34949135  0.99330051  0.97475942    -0.32100
C267        C  0.33504465  0.46376021  0.98796412     0.37200
C268        C  0.33422516  0.46258399  0.01666469    -0.05000
C269        C  0.34449455  0.49096386  0.03129298    -0.32000
C270        C  0.35852444  0.02042194  0.01807049     0.37100
H271        H  0.35219256  0.99388905  0.95280936     0.17400
O272        O  0.32510911  0.43674677  0.97277197    -0.59500
H273        H  0.34393811  0.49069452  0.05335734     0.17500
O274        O  0.37162885  0.04766888  0.03332512    -0.59600
H275        H  0.35367920  0.05129750  0.03771017     0.44500
H276        H  0.30215152  0.42774728  0.97081459     0.44400
C277        C  0.40330311  0.07358067  0.80996044    -0.04600
C278        C  0.38385676  0.08124220  0.82564400    -0.32100
C279        C  0.39018940  0.08904719  0.85327757     0.37200
C280        C  0.41660528  0.08959297  0.86566809    -0.05000
C281        C  0.43646379  0.08268978  0.84968009    -0.32000
C282        C  0.43009944  0.07490906  0.82210279     0.37100
H283        H  0.36323135  0.08051383  0.81660061     0.17400
O284        O  0.36987976  0.09523688  0.86804827    -0.59500
H285        H  0.45706961  0.08323318  0.85855878     0.17500
O286        O  0.45050457  0.06903627  0.80713977    -0.59600
H287        H  0.46583750  0.08974565  0.79882067     0.44500
H288        H  0.37726504  0.11802959  0.86481611     0.44400
C289        C  0.21278799  0.22650788  0.62497931    -0.04600
C290        C  0.22407508  0.25905639  0.62135303    -0.32100
C291        C  0.25678235  0.28094382  0.62059688     0.37200
C292        C  0.27904990  0.27047381  0.62338926    -0.05000
C293        C  0.26767865  0.23814452  0.62824355    -0.32000
C294        C  0.23504278  0.21633809  0.62915961     0.37100
H295        H  0.20751857  0.26755042  0.61843369     0.17400
O296        O  0.26659214  0.31242969  0.61672415    -0.59500
H297        H  0.28415823  0.22951501  0.63090598     0.17500
O298        O  0.22523554  0.18499872  0.63387010    -0.59600
H299        H  0.22473802  0.18287915  0.65397587     0.44500
H300        H  0.26867219  0.32132070  0.63529813     0.44400
C301        C  0.02678710  0.14949083  0.65684268    -0.04600
C302        C  0.49868764  0.13740968  0.64151420    -0.32100
C303        C  0.46882438  0.12283870  0.65427664     0.37200
C304        C  0.46655057  0.11992959  0.68289441    -0.05000
C305        C  0.49474730  0.13487713  0.69816678    -0.32000
C306        C  0.02460087  0.14974447  0.68546247     0.37100
H307        H  0.49972185  0.13744115  0.61946429     0.17400
O308        O  0.44214873  0.10939008  0.63840955    -0.59500
H309        H  0.49381021  0.13344106  0.72019533     0.17500
O310        O  0.05127825  0.16172597  0.70128970    -0.59600
H311        H  0.05648978  0.18365882  0.70569340     0.44500
H312        H  0.43663629  0.12628268  0.63592821     0.44400
C313        C  0.10169319  0.07211680  0.65833897    -0.04600
C314        C  0.10157717  0.04740063  0.64337945    -0.32100
C315        C  0.10143017  0.02178496  0.65656936     0.37200
C316        C  0.10181911  0.02064032  0.68533252    -0.05000
C317        C  0.10098062  0.04486708  0.70023636    -0.32000
C318        C  0.10078021  0.07026967  0.68707757     0.37100
H319        H  0.10194947  0.04803476  0.62132149     0.17400
O320        O  0.10122222  0.49811827  0.64098094    -0.59500
H321        H  0.10078975  0.04437108  0.72229498     0.17500
O322        O  0.09931561  0.09296209  0.70264394    -0.59600
H323        H  0.12155922  0.10811892  0.70766967     0.44500
H324        H  0.07856911  0.98202508  0.63898267     0.44400
C325        C  0.00223654  0.22332635  0.38985557    -0.04600
C326        C  0.02245225  0.25576678  0.38469036    -0.32100
C327        C  0.01053165  0.27674181  0.38299059     0.37200
C328        C  0.47775234  0.26552762  0.38624975    -0.05000
C329        C  0.45743568  0.23294807  0.39057125    -0.32000
C330        C  0.46938004  0.21202661  0.39256004     0.37100
H331        H  0.04771497  0.26504058  0.38220190     0.17400
O332        O  0.03117245  0.30808805  0.37732156    -0.59500
H333        H  0.43213680  0.22361239  0.39284028     0.17500
O334        O  0.44843369  0.18027960  0.39609785    -0.59600
H335        H  0.44201291  0.17792216  0.41553961     0.44500
H336        H  0.04060448  0.31790945  0.39510664     0.44400
C337        C  0.06564072  0.15434271  0.47863676    -0.04600
C338        C  0.08594376  0.18335225  0.49142225    -0.32100
C339        C  0.09760804  0.18434211  0.51757281     0.37200
C340        C  0.08881798  0.15595969  0.53176812    -0.05000
C341        C  0.06904909  0.12686072  0.51882279    -0.32000
C342        C  0.05749578  0.12585790  0.49251462     0.37100
H343        H  0.09292505  0.20556568  0.48112461     0.17400
O344        O  0.11747217  0.21330940  0.52907062    -0.59500
H345        H  0.06193518  0.10473192  0.52932509     0.17500
O346        O  0.03798042  0.09690294  0.48081065    -0.59600
H347        H  0.05239991  0.09047030  0.47236995     0.44500
H348        H  0.13913112  0.21871270  0.52305354     0.44400
C349        C  0.45874634  0.07487659  0.35448811    -0.04600
C350        C  0.45850960  0.07348413  0.32588775    -0.32100
C351        C  0.43334194  0.04863911  0.31188855     0.37200
C352        C  0.40754600  0.02444971  0.32642225    -0.05000
C353        C  0.40769962  0.02588385  0.35503257    -0.32000
C354        C  0.43286698  0.05078430  0.36904397     0.37100
H355        H  0.47789658  0.09184205  0.31417525     0.17400
O356        O  0.43386312  0.04885507  0.28396018    -0.59500
H357        H  0.38817723  0.00762328  0.36669844     0.17500
O358        O  0.43188277  0.05113012  0.39695960    -0.59600
H359        H  0.42000430  0.06217787  0.40153658     0.44500
H360        H  0.44635387  0.03858767  0.27876720     0.44400
C361        C  0.25871869  0.48163641  0.28568805    -0.04600
C362        C  0.22663905  0.46218555  0.29279756    -0.32100
C363        C  0.20568611  0.47422083  0.29342767     0.37200
C364        C  0.21670984  0.00645837  0.28742523    -0.05000
C365        C  0.24874630  0.02586461  0.28038362    -0.32000
C366        C  0.26948456  0.01373429  0.27906861     0.37100
H367        H  0.21766855  0.43749352  0.29791158     0.17400
O368        O  0.17468272  0.45439318  0.30084499    -0.59500
H369        H  0.25777756  0.05060547  0.27541409     0.17500
O370        O  0.30045171  0.03382997  0.27170672    -0.59600
H371        H  0.30074938  0.03279257  0.25153385     0.44500
H372        H  0.16415425  0.44212842  0.28416888     0.44400
C373        C  0.14875464  0.12307905  0.32843634    -0.04600
C374        C  0.13722041  0.14018523  0.31396905    -0.32100
C375        C  0.12110408  0.15356988  0.32732681     0.37200
C376        C  0.11622034  0.15001935  0.35571211    -0.05000
C377        C  0.13091738  0.13612601  0.37046424    -0.32000
C378        C  0.14719963  0.12290757  0.35713001     0.37100
H379        H  0.13838648  0.14102713  0.29192357     0.17400
O380        O  0.10712088  0.16671310  0.31200622    -0.59500
H381        H  0.12794929  0.13354121  0.39236565     0.17500
O382        O  0.15843649  0.10698579  0.37225413    -0.59600
H383        H  0.18062429  0.12289481  0.37643757     0.44500
H384        H  0.12262021  0.18969043  0.31165081     0.44400
C385        C  0.01765572  0.41566360  0.34903676    -0.04600
C386        C  0.04271109  0.43838319  0.36480905    -0.32100
C387        C  0.06798233  0.46515428  0.35276274     0.37200
C388        C  0.06858321  0.46976396  0.32431624    -0.05000
C389        C  0.04314788  0.44738007  0.30860965    -0.32000
C390        C  0.01795309  0.42045718  0.32066749     0.37100
H391        H  0.04299948  0.43526813  0.38662749     0.17400
O392        O  0.09189490  0.48664777  0.36911479    -0.59500
H393        H  0.04292508  0.45045363  0.28678278     0.17500
O394        O  0.99348086  0.39936021  0.30455233    -0.59600
H395        H  0.00143299  0.38638781  0.29553837     0.44500
H396        H  0.10598925  0.47766654  0.37210325     0.44400
C397        C  0.21899550  0.21369072  0.05586747    -0.04600
C398        C  0.25120455  0.22503213  0.06132204    -0.32100
C399        C  0.27311279  0.25774430  0.06181110     0.37200
C400        C  0.26299489  0.27999080  0.05695670    -0.05000
C401        C  0.23090232  0.26854280  0.05091376    -0.32000
C402        C  0.20910347  0.23589234  0.05025929     0.37100
H403        H  0.25940707  0.20849981  0.06565542     0.17400
O404        O  0.30428253  0.26759124  0.06738230    -0.59500
H405        H  0.22252391  0.28496463  0.04673308     0.17500
O406        O  0.17811457  0.22599238  0.04392705    -0.59600
H407        H  0.17652974  0.22200270  0.02403536     0.44500
H408        H  0.31386100  0.26720164  0.04961072     0.44400
C409        C  0.13818104  0.02501327  0.02300563    -0.04600
C410        C  0.14550538  0.02410814  0.99541291    -0.32100
C411        C  0.13424643  0.49514402  0.98156763     0.37200
C412        C  0.11527917  0.46632261  0.99555106    -0.05000
C413        C  0.11102562  0.46727434  0.02371892    -0.32000
C414        C  0.12174184  0.99608092  0.03746058     0.37100
H415        H  0.15846604  0.04594367  0.98394882     0.17400
O416        O  0.14035058  0.49517346  0.95426862    -0.59500
H417        H  0.09679602  0.44548232  0.03496378     0.17500
O418        O  0.11550235  0.99576378  0.06478167    -0.59600
H419        H  0.09348345  0.49021644  0.06604972     0.44500
H420        H  0.16014096  0.99401863  0.95354677     0.44400
C421        C  0.15157744  0.07060183  0.20039491    -0.04600
C422        C  0.17130780  0.06786617  0.18098613    -0.32100
C423        C  0.17093117  0.07617917  0.15375807     0.37200
C424        C  0.15136951  0.08850290  0.14572308    -0.05000
C425        C  0.13195652  0.09161835  0.16530520    -0.32000
C426        C  0.13187377  0.08266374  0.19241670     0.37100
H427        H  0.18646590  0.05846884  0.18681888     0.17400
O428        O  0.18921711  0.07140563  0.13509379    -0.59500
H429        H  0.11695172  0.10124851  0.15964498     0.17500
O430        O  0.11358998  0.08721522  0.21124146    -0.59600
H431        H  0.09246557  0.06773287  0.21040981     0.44500
H432        H  0.17488548  0.05022447  0.12705600     0.44400
C433        C  0.01280594  0.10419618  0.99498693    -0.04600
C434        C  0.03545734  0.10090513  0.97969016    -0.32100
C435        C  0.06149467  0.10146795  0.99220517     0.37200
C436        C  0.06532939  0.10518467  0.02069868    -0.05000
C437        C  0.04221347  0.10758783  0.03613504    -0.32000
C438        C  0.01627728  0.10734633  0.02355940     0.37100
H439        H  0.03323970  0.09816877  0.95777110     0.17400
O440        O  0.08267347  0.09771036  0.97633279    -0.59500
H441        H  0.04447661  0.11023231  0.05805775     0.17500
O442        O  0.99441463  0.10994616  0.03947343    -0.59600
H443        H  0.00434616  0.13281012  0.04401114     0.44500
H444        H  0.09753101  0.11916957  0.96907321     0.44400
O445        O  0.09484120  0.60554149  0.06017793    -0.57000
C446        C  0.15078259  0.59761864  0.11708429     0.75600
O447        O  0.16353467  0.58266569  0.02587475    -0.58200
C448        C  0.09332343  0.60713359  0.03448523     0.75600
C449        C  0.19564129  0.67900342  0.05691523     0.78000
Cd450      Cd  0.14846952  0.61156734  0.06044709     1.37500
O451        O  0.12709818  0.59846373  0.10739679    -0.57000
O452        O  0.20356896  0.65802938  0.05333966    -0.55800
C453        C  0.14434085  0.55543159  0.03555205     0.78000
O454        O  0.16655564  0.66871108  0.06165411    -0.58200
O455        O  0.17359996  0.60450114  0.10083591    -0.56600
O456        O  0.11734933  0.61098525  0.02114756    -0.56600
O457        O  0.12888231  0.55510352  0.05639578    -0.55800
O458        O  0.09814886  0.00001665  0.28506186    -0.57000
C459        C  0.15204976  0.56119090  0.22887602     0.75600
O460        O  0.16662584  0.58465848  0.32446091    -0.58200
C461        C  0.09628295  0.99662422  0.31074579     0.75600
C462        C  0.19535339  0.52023605  0.28770098     0.78000
Cd463      Cd  0.15268422  0.54622111  0.28546200     1.37500
O464        O  0.12661505  0.54534349  0.24237881    -0.57000
O465        O  0.16559912  0.50296158  0.28582736    -0.55800
C466        C  0.15533943  0.60037838  0.31333385     0.78000
O467        O  0.20576442  0.54989822  0.28920919    -0.58200
O468        O  0.17774635  0.56882138  0.24111075    -0.56600
O469        O  0.11975258  0.51690647  0.32416870    -0.56600
O470        O  0.14705411  0.59350716  0.28881668    -0.55800
O471        O  0.48736283  0.60441832  0.39415797    -0.57000
C472        C  0.05443085  0.65463370  0.45065640     0.75600
O473        O  0.08120083  0.67235130  0.35971793    -0.58200
C474        C  0.48562120  0.60174082  0.36847539     0.75600
C475        C  0.01535920  0.70157137  0.39208011     0.78000
Cd476      Cd  0.03758068  0.65574245  0.39482087     1.37500
O477        O  0.03460878  0.62948575  0.43851721    -0.57000
O478        O  0.00000109  0.67490619  0.40368159    -0.55800
C479        C  0.09177250  0.65530869  0.36952479     0.78000
O480        O  0.04227258  0.70822153  0.38241070    -0.58200
O481        O  0.06488369  0.68023790  0.43730637    -0.56600
O482        O  0.00817140  0.62379644  0.35531364    -0.56600
O483        O  0.07880607  0.64088476  0.39134635    -0.55800
O484        O  0.09595392  0.63216859  0.57198470    -0.57000
C485        C  0.10404333  0.60004761  0.64391814     0.75600
O486        O  0.15719004  0.71136677  0.62535392    -0.58200
C487        C  0.09841113  0.65660886  0.56048740     0.75600
C488        C  0.05679636  0.65604492  0.64293870     0.78000
Cd489      Cd  0.11109899  0.65645849  0.61769050     1.37500
O490        O  0.10375850  0.60184541  0.61815528    -0.57000
O491        O  0.05623507  0.64574938  0.61919861    -0.55800
C492        C  0.17825069  0.70336696  0.62317898     0.78000
O493        O  0.08364697  0.66963921  0.65449440    -0.58200
O494        O  0.10717989  0.62393332  0.65687306    -0.56600
O495        O  0.10825233  0.68113837  0.57519426    -0.56600
O496        O  0.16812585  0.67428491  0.61874016    -0.55800
O497        O  0.48323188  0.60160792  0.95512628    -0.57000
C498        C  0.42352671  0.59667528  0.89510012     0.75600
O499        O  0.39088033  0.57879081  0.98419004    -0.58200
C500        C  0.48629806  0.60478996  0.98077040     0.75600
C501        C  0.45993043  0.67554627  0.95793212     0.78000
Cd502      Cd  0.43657117  0.60817606  0.95236564     1.37500
O503        O  0.44717087  0.59688516  0.90605208    -0.57000
O504        O  0.47665631  0.66389071  0.94989886    -0.55800
C505        C  0.38520691  0.55168233  0.97591273     0.78000
O506        O  0.43099257  0.65578079  0.96314708    -0.58200
O507        O  0.40630403  0.60263904  0.91067977    -0.56600
O508        O  0.46591652  0.60908680  0.99326003    -0.56600
O509        O  0.40172802  0.55135046  0.95612061    -0.55800
O510        O  0.40225532  0.54496798  0.76962777    -0.57000
C511        C  0.38589184  0.99582740  0.70036965     0.75600
O512        O  0.33333084  0.55338003  0.71592931    -0.58200
C513        C  0.39534599  0.56412220  0.78116459     0.75600
C514        C  0.43622614  0.59810416  0.69701048     0.78000
Cd515      Cd  0.38128777  0.54723730  0.72474984     1.37500
O516        O  0.38694366  0.99890455  0.72610074    -0.57000
O517        O  0.43575579  0.59218528  0.72208072    -0.55800
C518        C  0.31341809  0.52450300  0.72113591     0.78000
O519        O  0.40987757  0.58271706  0.68481594    -0.58200
O520        O  0.38264904  0.51614561  0.68699719    -0.56600
O521        O  0.38123074  0.57481882  0.76675589    -0.56600
O522        O  0.32506335  0.50741826  0.72788691    -0.55800
O523        O  0.38052706  0.49282231  0.28691982    -0.57000
C524        C  0.32626482  0.93364243  0.22808602     0.75600
O525        O  0.31335244  0.90473752  0.32062582    -0.58200
C526        C  0.38025118  0.49767332  0.31226140     0.75600
C527        C  0.28079241  0.96868963  0.28568115     0.78000
Cd528      Cd  0.32647066  0.94679182  0.28503332     1.37500
O529        O  0.35090601  0.95506894  0.23979193    -0.57000
O530        O  0.30909016  0.98518970  0.27746621    -0.55800
C531        C  0.32848286  0.89306907  0.30876484     0.78000
O532        O  0.27280197  0.94094288  0.29399365    -0.58200
O533        O  0.30160568  0.91897614  0.24277758    -0.56600
O534        O  0.35522551  0.97881700  0.32493966    -0.56600
O535        O  0.33985249  0.90450910  0.28564649    -0.55800
O536        O  0.35683911  0.90942990  0.10251325    -0.57000
C537        C  0.38490406  0.88428829  0.03330946     0.75600
O538        O  0.27719760  0.83514441  0.05166616    -0.58200
C539        C  0.33108680  0.89976915  0.11562141     0.75600
C540        C  0.32904449  0.93387006  0.03159651     0.78000
Cd541      Cd  0.33080929  0.88234174  0.05942048     1.37500
O542        O  0.38432401  0.88830298  0.05880174    -0.57000
O543        O  0.33842965  0.93582015  0.05579261    -0.55800
C544        C  0.28530772  0.81488073  0.05800687     0.78000
O545        O  0.31733600  0.90673266  0.02061741    -0.58200
O546        O  0.36070755  0.87983738  0.02025559    -0.56600
O547        O  0.30580817  0.88124445  0.10301645    -0.56600
O548        O  0.31381352  0.82607444  0.06530880    -0.55800
O549        O  0.03778696  0.89806452  0.90993742    -0.57000
C550        C  0.49268803  0.88591092  0.98073674     0.75600
O551        O  0.04696373  0.83233208  0.96770404    -0.58200
C552        C  0.05825931  0.89311338  0.89831829     0.75600
C553        C  0.09464101  0.93616397  0.98087218     0.78000
Cd554      Cd  0.04319458  0.88073522  0.95536178     1.37500
O555        O  0.49459326  0.88458253  0.95504704    -0.57000
O556        O  0.08535791  0.93657098  0.95698162    -0.55800
C557        C  0.01847455  0.81285140  0.96102237     0.78000
O558        O  0.08283525  0.90910355  0.99210978    -0.58200
O559        O  0.01464369  0.88601959  0.99424381    -0.56600
O560        O  0.07137972  0.88157552  0.91304075    -0.56600
O561        O  0.00260073  0.82493103  0.95205577    -0.55800
O562        O  0.09167050  0.95127261  0.77407781    -0.57000
C563        C  0.10336548  0.49465932  0.69997644     0.75600
O564        O  0.15659542  0.94093514  0.71737170    -0.58200
C565        C  0.09243258  0.92803972  0.78490174     0.75600
C566        C  0.05293008  0.89368755  0.70049252     0.78000
Cd567      Cd  0.10748591  0.94455759  0.72782671     1.37500
O568        O  0.10130568  0.49211485  0.72572994    -0.57000
O569        O  0.05087664  0.90737134  0.72166912    -0.55800
C570        C  0.17592846  0.96954977  0.72389733     0.78000
O571        O  0.08082733  0.90140702  0.69269863    -0.58200
O572        O  0.10739344  0.97423893  0.68752697    -0.56600
O573        O  0.10097015  0.91271873  0.76942041    -0.56600
O574        O  0.16347214  0.98532008  0.73253034    -0.55800
O575        O  0.39735444  0.86087132  0.57038670    -0.57000
C576        C  0.38774535  0.89188021  0.64426982     0.75600
O577        O  0.33432924  0.78485200  0.62741906    -0.58200
C578        C  0.39577469  0.83666551  0.55904108     0.75600
C579        C  0.43606357  0.83834324  0.64186187     0.78000
Cd580      Cd  0.38184180  0.83727649  0.61615618     1.37500
O581        O  0.38899879  0.89123549  0.61846735    -0.57000
O582        O  0.43718520  0.84856444  0.61800860    -0.55800
C583        C  0.31396578  0.79269227  0.62079595     0.78000
O584        O  0.40887301  0.82458672  0.65304535    -0.58200
O585        O  0.38447387  0.86766156  0.65656594    -0.56600
O586        O  0.38696169  0.81250957  0.57410132    -0.56600
O587        O  0.32506450  0.82050900  0.61164887    -0.55800
O588        O  0.44541158  0.85909551  0.43204188    -0.57000
C589        C  0.49164535  0.88748372  0.36247144     0.75600
O590        O  0.43537948  0.77815311  0.38261329    -0.58200
C591        C  0.42724529  0.83397984  0.44512780     0.75600
C592        C  0.38820694  0.83226935  0.36092259     0.78000
Cd593      Cd  0.44116478  0.83223298  0.38808500     1.37500
O594        O  0.48889386  0.88512639  0.38817821    -0.57000
O595        O  0.39774890  0.84332547  0.38444988    -0.55800
C596        C  0.46464310  0.78756557  0.38603908     0.78000
O597        O  0.40127472  0.81792216  0.35009130    -0.58200
O598        O  0.47104351  0.86421645  0.34891212    -0.56600
O599        O  0.41589924  0.80824989  0.43185446    -0.56600
O600        O  0.48228859  0.81698189  0.38994028    -0.55800
C601        C  0.40399524  0.83647442  0.52983031    -0.04600
C602        C  0.40107486  0.80864831  0.51832719    -0.32100
C603        C  0.40874468  0.80761148  0.49094636     0.37200
C604        C  0.41954647  0.83467776  0.47431990    -0.05000
C605        C  0.42281147  0.86262872  0.48580882    -0.32000
C606        C  0.41518682  0.86370777  0.51324216     0.37100
H607        H  0.39285653  0.78747949  0.53060283     0.17400
O608        O  0.40578040  0.77999660  0.48073328    -0.59500
H609        H  0.43100637  0.88370900  0.47340937     0.17500
O610        O  0.41842625  0.89143950  0.52343995    -0.59600
H611        H  0.44092172  0.90403955  0.52918272     0.44500
H612        H  0.42608501  0.78082740  0.48518707     0.44400
C613        C  0.02390933  0.87200094  0.68497350    -0.04600
C614        C  0.99483034  0.85498302  0.69888699    -0.32100
C615        C  0.46588387  0.84113886  0.68482344     0.37200
C616        C  0.46556099  0.84477732  0.65634192    -0.05000
C617        C  0.49473798  0.85936832  0.64222171    -0.32000
C618        C  0.02371945  0.87286853  0.65630404     0.37100
H619        H  0.99444865  0.85390174  0.72093550     0.17400
O620        O  0.43815742  0.82651962  0.69951318    -0.59500
H621        H  0.49524564  0.86220581  0.62031562     0.17500
O622        O  0.05155226  0.88914080  0.64190498    -0.59600
H623        H  0.05533410  0.91105676  0.64022713     0.44500
H624        H  0.43249462  0.80392907  0.70057474     0.44400
C625        C  0.06677396  0.90126891  0.86922945    -0.04600
C626        C  0.06127425  0.92414341  0.85705522    -0.32100
C627        C  0.06986715  0.93336018  0.82992401     0.37200
C628        C  0.08365333  0.91913736  0.81399191    -0.05000
C629        C  0.08872163  0.89584849  0.82609439    -0.32000
C630        C  0.08075570  0.88716057  0.85350040     0.37100
H631        H  0.05069365  0.93542688  0.86876768     0.17400
O632        O  0.06406447  0.95592588  0.81913137    -0.59500
H633        H  0.09908400  0.88439527  0.81433917     0.17500
O634        O  0.08575896  0.86409670  0.86438770    -0.60800
H635        H  0.10836153  0.87524120  0.86987527     0.44500
H636        H  0.08311178  0.97653885  0.82355337     0.44400
C637        C  0.46569050  0.88649410  0.99432169    -0.04600
C638        C  0.44001186  0.88284021  0.97866742    -0.32100
C639        C  0.41350827  0.88184759  0.99097152     0.37200
C640        C  0.41237353  0.88482121  0.01953793    -0.05000
C641        C  0.43804567  0.88846013  0.03517179    -0.32000
C642        C  0.46440832  0.88916928  0.02289560     0.37100
H643        H  0.44021513  0.88033356  0.95674554     0.17400
O644        O  0.38866846  0.87734440  0.97483183    -0.59500
H645        H  0.43771522  0.89063446  0.05712000     0.17500
O646        O  0.48887340  0.89280871  0.03912095    -0.59600
H647        H  0.48276933  0.87111612  0.04527114     0.44500
H648        H  0.39424317  0.89895786  0.96842582     0.44400
C649        C  0.36495988  0.83860886  0.34676895    -0.04600
C650        C  0.34770391  0.84929182  0.36226127    -0.32100
C651        C  0.33280645  0.86436628  0.34995343     0.37200
C652        C  0.33524963  0.86935125  0.32158029    -0.05000
C653        C  0.34944375  0.85547820  0.30581884    -0.32000
C654        C  0.36402691  0.84003905  0.31814324     0.37100
H655        H  0.34758899  0.84798395  0.38429088     0.17400
O656        O  0.31890243  0.87701911  0.36620104    -0.59500
H657        H  0.35116839  0.85845123  0.28390075     0.17500
O658        O  0.38006339  0.82952286  0.30209617    -0.59600
H659        H  0.36440642  0.80732488  0.29775155     0.44500
H660        H  0.29796756  0.85885469  0.37133021     0.44400
C661        C  0.32662133  0.92577484  0.19892736    -0.04600
C662        C  0.35352204  0.94486383  0.18285828    -0.32100
C663        C  0.35532487  0.93700957  0.15567517     0.37200
C664        C  0.33010491  0.90936810  0.14413484    -0.05000
C665        C  0.30292208  0.89078733  0.15998430    -0.32000
C666        C  0.30094696  0.89878220  0.18702446     0.37100
H667        H  0.37335957  0.96598487  0.19137788     0.17400
O668        O  0.38176198  0.95665513  0.14061325    -0.59500
H669        H  0.28313021  0.86959619  0.15150525     0.17500
O670        O  0.27419390  0.87931790  0.20182238    -0.59600
H671        H  0.25873887  0.88621439  0.19722725     0.44500
H672        H  0.37713995  0.97258961  0.13251877     0.44400
C673        C  0.38929529  0.91912315  0.65923097    -0.04600
C674        C  0.39240388  0.94517993  0.64452862    -0.32100
C675        C  0.39206762  0.97046200  0.65774079     0.37200
C676        C  0.38825314  0.97005030  0.68631870    -0.05000
C677        C  0.38603373  0.94441088  0.70119118    -0.32000
C678        C  0.38662624  0.91914849  0.68793481     0.37100
H679        H  0.39476259  0.94590253  0.62255042     0.17400
O680        O  0.39507212  0.99527342  0.64230031    -0.59500
H681        H  0.38325969  0.94361884  0.72313212     0.17500
O682        O  0.38359574  0.89423569  0.70324740    -0.59600
H683        H  0.40562278  0.89971821  0.70771189     0.44500
H684        H  0.41808516  0.01094243  0.64216076     0.44400
C685        C  0.27834460  0.51090246  0.71987337    -0.04600
C686        C  0.26485647  0.53027420  0.72368506    -0.32100
C687        C  0.23172573  0.51718629  0.72473387     0.37200
C688        C  0.21117324  0.98410906  0.72178042    -0.05000
C689        C  0.22472751  0.96493784  0.71701115    -0.32000
C690        C  0.25781062  0.97798866  0.71609656     0.37100
H691        H  0.28002099  0.55560956  0.72642937     0.17400
O692        O  0.21972493  0.53720947  0.72800787    -0.59500
H693        H  0.20965208  0.93960288  0.71422097     0.17500
O694        O  0.26988617  0.95842205  0.71050375    -0.59600
H695        H  0.26916534  0.94804972  0.72806175     0.44500
H696        H  0.22045046  0.54118515  0.74787572     0.44400
C697        C  0.00386580  0.77776248  0.96292431    -0.04600
C698        C  0.47069921  0.75861040  0.96309076    -0.32100
C699        C  0.45584997  0.72537591  0.96248691     0.37200
C700        C  0.47430288  0.71049836  0.96092414    -0.05000
C701        C  0.00743223  0.72962761  0.96156766    -0.32000
C702        C  0.02226545  0.76280557  0.96289386     0.37100
H703        H  0.45597159  0.76950994  0.96342866     0.17400
O704        O  0.42335596  0.70786470  0.96214281    -0.59500
H705        H  0.02221988  0.71880751  0.96075105     0.17500
O706        O  0.05475976  0.78032537  0.96261571    -0.59600
H707        H  0.06120162  0.78073792  0.98185318     0.44500
H708        H  0.41682822  0.70433868  0.98163004     0.44400
C709        C  0.36244548  0.52165342  0.98950165    -0.04600
C710        C  0.34932659  0.49315018  0.97465144    -0.32100
C711        C  0.33526991  0.96390489  0.98805003     0.37200
C712        C  0.33442869  0.96269810  0.01674843    -0.05000
C713        C  0.34463175  0.99105761  0.03139764    -0.32000
C714        C  0.35844276  0.52031618  0.01794954     0.37100
H715        H  0.35201854  0.49371965  0.95270112     0.17400
O716        O  0.32541492  0.93692110  0.97283537    -0.59500
H717        H  0.34404498  0.99076376  0.05346138     0.17500
O718        O  0.37166502  0.54757713  0.03318949    -0.59600
H719        H  0.35371036  0.55108306  0.03788975     0.44500
H720        H  0.30247524  0.92795024  0.97075506     0.44400
C721        C  0.40321455  0.57346784  0.81000400    -0.04600
C722        C  0.38368684  0.58101879  0.82569217    -0.32100
C723        C  0.38999849  0.58883348  0.85332728     0.37200
C724        C  0.41646515  0.58948458  0.86571694    -0.05000
C725        C  0.43638269  0.58266162  0.84973239    -0.32000
C726        C  0.43004665  0.57488152  0.82215456     0.37100
H727        H  0.36302526  0.58021235  0.81664763     0.17400
O728        O  0.36961945  0.59492216  0.86810051    -0.59500
H729        H  0.45702602  0.58328349  0.85861109     0.17500
O730        O  0.45052034  0.56910155  0.80719915    -0.59600
H731        H  0.46583282  0.58983989  0.79891718     0.44500
H732        H  0.37685439  0.61766469  0.86479905     0.44400
C733        C  0.21286072  0.72656818  0.62498889    -0.04600
C734        C  0.22413996  0.75911904  0.62138791    -0.32100
C735        C  0.25684813  0.78100657  0.62058571     0.37200
C736        C  0.27912082  0.77052909  0.62328247    -0.05000
C737        C  0.26775637  0.73819553  0.62810889    -0.32000
C738        C  0.23512334  0.71639674  0.62910124     0.37100
H739        H  0.20757666  0.76761603  0.61853060     0.17400
O740        O  0.26665343  0.81250024  0.61677292    -0.59500
H741        H  0.28423847  0.72955965  0.63071318     0.17500
O742        O  0.22532449  0.68506356  0.63383442    -0.59600
H743        H  0.22485275  0.68296854  0.65394213     0.44500
H744        H  0.26854825  0.82130605  0.63535904     0.44400
C745        C  0.02688100  0.64953579  0.65682635    -0.04600
C746        C  0.49879921  0.63753497  0.64150725    -0.32100
C747        C  0.46894276  0.62297944  0.65428601     0.37200
C748        C  0.46668172  0.61999450  0.68290115    -0.05000
C749        C  0.49489346  0.63484794  0.69816019    -0.32000
C750        C  0.02471515  0.64974007  0.68544796     0.37100
H751        H  0.49982532  0.63762718  0.61945569     0.17400
O752        O  0.44225669  0.60961712  0.63843189    -0.59500
H753        H  0.49397113  0.63334281  0.72018532     0.17500
O754        O  0.05140275  0.66163384  0.70125523    -0.59600
H755        H  0.05652086  0.68348600  0.70588948     0.44500
H756        H  0.43682315  0.62656777  0.63596404     0.44400
C757        C  0.10168501  0.57203334  0.65826418    -0.04600
C758        C  0.10152901  0.54728944  0.64331179    -0.32100
C759        C  0.10135721  0.52165908  0.65651196     0.37200
C760        C  0.10174772  0.52051978  0.68527719    -0.05000
C761        C  0.10092131  0.54476023  0.70016918    -0.32000
C762        C  0.10075900  0.57018004  0.68700291     0.37100
H763        H  0.10190714  0.54792280  0.62125391     0.17400
O764        O  0.10129367  0.99824958  0.64102962    -0.59500
H765        H  0.10072251  0.54426903  0.72222788     0.17500
O766        O  0.09932768  0.59289266  0.70256537    -0.59600
H767        H  0.12157332  0.60800787  0.70761892     0.44500
H768        H  0.07849911  0.48189619  0.63893020     0.44400
C769        C  0.00217897  0.72339372  0.38983635    -0.04600
C770        C  0.02242458  0.75585582  0.38477485    -0.32100
C771        C  0.01051474  0.77684082  0.38304532     0.37200
C772        C  0.47769083  0.76556647  0.38618084    -0.05000
C773        C  0.45734639  0.73297506  0.39040881    -0.32000
C774        C  0.46927312  0.71204276  0.39244551     0.37100
H775        H  0.04770090  0.76513842  0.38239346     0.17400
O776        O  0.03118999  0.80821187  0.37749721    -0.59500
H777        H  0.43203746  0.72363929  0.39258238     0.17500
O778        O  0.44830142  0.68029554  0.39593872    -0.59600
H779        H  0.44189786  0.67790426  0.41538677     0.44500
H780        H  0.04049844  0.81795923  0.39533568     0.44400
C781        C  0.06557607  0.65443380  0.47869125    -0.04600
C782        C  0.08582702  0.68347934  0.49145809    -0.32100
C783        C  0.09758017  0.68453406  0.51758655     0.37200
C784        C  0.08893340  0.65618039  0.53177408    -0.05000
C785        C  0.06921403  0.62705575  0.51884962    -0.32000
C786        C  0.05757460  0.62598696  0.49256882     0.37100
H787        H  0.09270701  0.70566916  0.48115903     0.17400
O788        O  0.11738958  0.71352897  0.52906572    -0.59500
H789        H  0.06220083  0.60494783  0.52935033     0.17500
O790        O  0.03810689  0.59700080  0.48089619    -0.59600
H791        H  0.05256060  0.59057312  0.47251446     0.44500
H792        H  0.13906476  0.71897355  0.52306467     0.44400
C793        C  0.45864626  0.57473101  0.35447716    -0.04600
C794        C  0.45841349  0.57332062  0.32587489    -0.32100
C795        C  0.43327690  0.54842661  0.31188275     0.37200
C796        C  0.40752027  0.52420304  0.32642711    -0.05000
C797        C  0.40767261  0.52565545  0.35503451    -0.32000
C798        C  0.43279289  0.55061215  0.36903587     0.37100
H799        H  0.47777153  0.59170612  0.31415806     0.17400
O800        O  0.43377385  0.54863742  0.28395337    -0.59500
H801        H  0.38817365  0.50737566  0.36670703     0.17500
O802        O  0.43178569  0.55098963  0.39694897    -0.59600
H803        H  0.41984722  0.56198576  0.40149169     0.44500
H804        H  0.44634675  0.53846117  0.27874838     0.44400
C805        C  0.25870034  0.98162598  0.28568628    -0.04600
C806        C  0.22657868  0.96210075  0.29263106    -0.32100
C807        C  0.20560368  0.97411332  0.29325721     0.37200
C808        C  0.21677017  0.50652499  0.28743962    -0.05000
C809        C  0.24876287  0.52586099  0.28021654    -0.32000
C810        C  0.26948011  0.51369856  0.27889860     0.37100
H811        H  0.21759554  0.93737421  0.29761907     0.17400
O812        O  0.17456086  0.95422686  0.30052943    -0.59500
H813        H  0.25777239  0.55056473  0.27511480     0.17500
O814        O  0.30040482  0.53371816  0.27137004    -0.59600
H815        H  0.30056339  0.53256226  0.25119942     0.44500
H816        H  0.16416191  0.94196747  0.28382005     0.44400
C817        C  0.14855348  0.62300525  0.32839495    -0.04600
C818        C  0.13679928  0.63990830  0.31392151    -0.32100
C819        C  0.12073458  0.65332760  0.32729857     0.37200
C820        C  0.11610229  0.65001209  0.35571865    -0.05000
C821        C  0.13100091  0.63631006  0.37045856    -0.32000
C822        C  0.14726440  0.62307750  0.35709474     0.37100
H823        H  0.13777211  0.64057722  0.29186889     0.17400
O824        O  0.10657672  0.66629543  0.31198388    -0.59500
H825        H  0.12823528  0.63390797  0.39238238     0.17500
O826        O  0.15878937  0.60741264  0.37221668    -0.59600
H827        H  0.18078946  0.62359806  0.37667324     0.44500
H828        H  0.12201389  0.68928690  0.31151394     0.44400
C829        C  0.01763048  0.91576971  0.34903607    -0.04600
C830        C  0.04281912  0.93832648  0.36479523    -0.32100
C831        C  0.06812558  0.96507788  0.35276234     0.37200
C832        C  0.06862168  0.96983416  0.32434589    -0.05000
C833        C  0.04306470  0.94760857  0.30865615    -0.32000
C834        C  0.01783762  0.92070418  0.32069793     0.37100
H835        H  0.04318471  0.93509495  0.38658883     0.17400
O836        O  0.09217602  0.98640601  0.36909719    -0.59500
H837        H  0.04276798  0.95079235  0.28685214     0.17500
O838        O  0.99325703  0.89975821  0.30459699    -0.59600
H839        H  0.00099338  0.88658023  0.29562718     0.44500
H840        H  0.10619165  0.97729829  0.37191079     0.44400
C841        C  0.21883737  0.71369198  0.05599008    -0.04600
C842        C  0.25107654  0.72504805  0.06131266    -0.32100
C843        C  0.27297906  0.75775764  0.06174875     0.37200
C844        C  0.26282817  0.77999790  0.05700270    -0.05000
C845        C  0.23069411  0.76854261  0.05113035    -0.32000
C846        C  0.20889963  0.73588642  0.05050427     0.37100
H847        H  0.25931967  0.70852708  0.06554834     0.17400
O848        O  0.30419200  0.76760775  0.06712313    -0.59500
H849        H  0.22228697  0.78496165  0.04704768     0.17500
O850        O  0.17787576  0.72597601  0.04430287    -0.59600
H851        H  0.17617286  0.72191678  0.02442229     0.44500
H852        H  0.31368534  0.76742876  0.04924920     0.44400
C853        C  0.13848415  0.52517718  0.02282041    -0.04600
C854        C  0.14568514  0.52426923  0.99519456    -0.32100
C855        C  0.13411243  0.99499608  0.98178310     0.37200
C856        C  0.11507762  0.96616805  0.99573011    -0.05000
C857        C  0.11064944  0.96710306  0.02387366    -0.32000
C858        C  0.12218639  0.49625900  0.03730585     0.37100
H859        H  0.15855958  0.54610211  0.98371210     0.17400
O860        O  0.14032359  0.99504941  0.95450457    -0.59500
H861        H  0.09633961  0.94530464  0.03508734     0.17500
O862        O  0.11616004  0.49596892  0.06466904    -0.59600
H863        H  0.09282690  0.99004909  0.06601329     0.44500
H864        H  0.16012827  0.49406557  0.95324232     0.44400
C865        C  0.15179815  0.57070268  0.20041082    -0.04600
C866        C  0.17164006  0.56811518  0.18102687    -0.32100
C867        C  0.17128264  0.57646376  0.15380325     0.37200
C868        C  0.15163052  0.58867967  0.14575697    -0.05000
C869        C  0.13214694  0.59169415  0.16532964    -0.32000
C870        C  0.13203568  0.58268955  0.19242796     0.37100
H871        H  0.18685338  0.55878597  0.18686948     0.17400
O872        O  0.18964991  0.57179849  0.13514911    -0.59500
H873        H  0.11707954  0.60125012  0.15966516     0.17500
O874        O  0.11363690  0.58708960  0.21123685    -0.59600
H875        H  0.09256430  0.56753734  0.21037011     0.44500
H876        H  0.17540462  0.55056729  0.12714054     0.44400
C877        C  0.01266781  0.60412591  0.99513095    -0.04600
C878        C  0.03539732  0.60100663  0.97979788    -0.32100
C879        C  0.06143415  0.60154702  0.99228594     0.37200
C880        C  0.06519916  0.60506756  0.02079338    -0.05000
C881        C  0.04199339  0.60727346  0.03627185    -0.32000
C882        C  0.01605501  0.60706695  0.02371927     0.37100
H883        H  0.03324375  0.59842199  0.95786575     0.17400
O884        O  0.08267493  0.59793803  0.97637085    -0.59500
H885        H  0.04420123  0.60975910  0.05820705     0.17500
O886        O  0.99411706  0.60950189  0.03966384    -0.59600
H887        H  0.00403185  0.63231636  0.04438891     0.44500
H888        H  0.09739396  0.61940976  0.96906502     0.44400
O889        O  0.59524680  0.10638069  0.06015221    -0.57000
C890        C  0.65047171  0.09730095  0.11712606     0.75600
O891        O  0.66312240  0.08239815  0.02592553    -0.58200
C892        C  0.59349479  0.10722045  0.03442029     0.75600
C893        C  0.69575762  0.17896057  0.05694124     0.78000
Cd894      Cd  0.64845640  0.11153056  0.06053092     1.37500
O895        O  0.62685548  0.09825400  0.10740808    -0.57000
O896        O  0.70359020  0.15794173  0.05317756    -0.55800
C897        C  0.64402792  0.05521136  0.03574900     0.78000
O898        O  0.66673196  0.16872310  0.06192313    -0.58200
O899        O  0.67332901  0.10417709  0.10092254    -0.56600
O900        O  0.61721973  0.11026211  0.02110402    -0.56600
O901        O  0.62881756  0.05499606  0.05673414    -0.55800
O902        O  0.59836438  0.49981445  0.28504078    -0.57000
C903        C  0.65194707  0.06121443  0.22899496     0.75600
O904        O  0.66664829  0.08447708  0.32466067    -0.58200
C905        C  0.59635069  0.49658374  0.31073993     0.75600
C906        C  0.69536616  0.02017598  0.28779058     0.78000
Cd907      Cd  0.65280866  0.04626491  0.28554709     1.37500
O908        O  0.62657924  0.04561514  0.24263568    -0.57000
O909        O  0.66564154  0.00294426  0.28559053    -0.55800
C910        C  0.65571196  0.10048144  0.31348889     0.78000
O911        O  0.70578092  0.04982197  0.28955834    -0.58200
O912        O  0.67767733  0.06864801  0.24109248    -0.56600
O913        O  0.61986851  0.01699481  0.32424868    -0.56600
O914        O  0.64771738  0.09388699  0.28888633    -0.55800
O915        O  0.98749399  0.10443142  0.39428722    -0.57000
C916        C  0.55464691  0.15464232  0.45049094     0.75600
O917        O  0.58170210  0.17266718  0.35979084    -0.58200
C918        C  0.98562515  0.10186347  0.36860244     0.75600
C919        C  0.51549469  0.20156652  0.39205234     0.78000
Cd920      Cd  0.53775417  0.15577055  0.39468317     1.37500
O921        O  0.53461430  0.12955047  0.43841427    -0.57000
O922        O  0.50027148  0.17499337  0.40382280    -0.55800
C923        C  0.59194053  0.15527743  0.36946014     0.78000
O924        O  0.54228861  0.20813731  0.38215375    -0.58200
O925        O  0.56532957  0.18023457  0.43708342    -0.56600
O926        O  0.50830643  0.12387723  0.35518047    -0.56600
O927        O  0.57858173  0.14048169  0.39104253    -0.55800
O928        O  0.59565755  0.13194524  0.57198717    -0.57000
C929        C  0.60399671  0.10013169  0.64392823     0.75600
O930        O  0.65713965  0.21132089  0.62521698    -0.58200
C931        C  0.59830339  0.15642437  0.56040909     0.75600
C932        C  0.55671772  0.15606569  0.64291659     0.78000
Cd933      Cd  0.61100638  0.15644189  0.61763828     1.37500
O934        O  0.60372582  0.10189989  0.61816233    -0.57000
O935        O  0.55620221  0.14593514  0.61911750    -0.55800
C936        C  0.67818528  0.20329212  0.62310572     0.78000
O937        O  0.58353583  0.16951603  0.65452614    -0.58200
O938        O  0.60707930  0.12400547  0.65686509    -0.56600
O939        O  0.60828442  0.18101773  0.57505487    -0.56600
O940        O  0.66804176  0.17419653  0.61872088    -0.55800
O941        O  0.98335396  0.10179628  0.95499557    -0.57000
C942        C  0.92355185  0.09667269  0.89504697     0.75600
O943        O  0.89098235  0.07893913  0.98423580    -0.58200
C944        C  0.98641665  0.10494913  0.98064105     0.75600
C945        C  0.95968003  0.17561401  0.95794470     0.78000
Cd946      Cd  0.93658698  0.10826289  0.95231383     1.37500
O947        O  0.94724561  0.09697029  0.90598407    -0.57000
O948        O  0.97648778  0.16404270  0.94993151    -0.55800
C949        C  0.88526864  0.05181440  0.97597587     0.78000
O950        O  0.93074842  0.15577170  0.96309177    -0.58200
O951        O  0.90628521  0.10255669  0.91064051    -0.56600
O952        O  0.96600563  0.10918658  0.99314237    -0.56600
O953        O  0.90172937  0.05143942  0.95615306    -0.55800
O954        O  0.90206005  0.04493478  0.76964451    -0.57000
C955        C  0.88602982  0.49593584  0.70044205     0.75600
O956        O  0.83328819  0.05338321  0.71593394    -0.58200
C957        C  0.89531511  0.06423763  0.78112156     0.75600
C958        C  0.93611989  0.09805073  0.69705655     0.78000
Cd959      Cd  0.88120633  0.04722791  0.72476949     1.37500
O960        O  0.88681406  0.49886910  0.72618137    -0.57000
O961        O  0.93568056  0.09206607  0.72210853    -0.55800
C962        C  0.81337584  0.02451440  0.72116332     0.78000
O963        O  0.90975161  0.08273763  0.68487638    -0.58200
O964        O  0.88269890  0.01620352  0.68702222    -0.56600
O965        O  0.88131953  0.07503681  0.76667818    -0.56600
O966        O  0.82501063  0.00743036  0.72794525    -0.55800
O967        O  0.88048176  0.99316882  0.28697453    -0.57000
C968        C  0.82623947  0.43371161  0.22815495     0.75600
O969        O  0.81333669  0.40458121  0.32074002    -0.58200
C970        C  0.88020110  0.99793673  0.31233365     0.75600
C971        C  0.78082552  0.46867427  0.28591125     0.78000
Cd972      Cd  0.82640199  0.44665800  0.28515975     1.37500
O973        O  0.85090054  0.45502958  0.23991988    -0.57000
O974        O  0.80904045  0.48504355  0.27746719    -0.55800
C975        C  0.82829873  0.39280256  0.30876619     0.78000
O976        O  0.77286815  0.44100295  0.29441106    -0.58200
O977        O  0.80155085  0.41905356  0.24281828    -0.56600
O978        O  0.85521070  0.47857964  0.32508642    -0.56600
O979        O  0.83949451  0.40416109  0.28558729    -0.55800
O980        O  0.85684336  0.40937917  0.10257582    -0.57000
C981        C  0.88480976  0.38452236  0.03318869     0.75600
O982        O  0.77724019  0.33507209  0.05160630    -0.58200
C983        C  0.83109646  0.39986983  0.11566012     0.75600
C984        C  0.82878200  0.43382405  0.03156867     0.78000
Cd985      Cd  0.83071067  0.38238752  0.05943015     1.37500
O986        O  0.88445710  0.38903062  0.05861741    -0.57000
O987        O  0.83792394  0.43571960  0.05584062    -0.55800
C988        C  0.78537021  0.31486045  0.05808222     0.78000
O989        O  0.81731548  0.40674207  0.02053305    -0.58200
O990        O  0.86036617  0.37949354  0.02022274    -0.56600
O991        O  0.80579400  0.38146374  0.10302770    -0.56600
O992        O  0.81383396  0.32612427  0.06554618    -0.55800
O993        O  0.53779403  0.39791101  0.90995630    -0.57000
C994        C  0.99254984  0.38598829  0.98073937     0.75600
O995        O  0.54692646  0.33227689  0.96771227    -0.58200
C996        C  0.55819457  0.39287549  0.89830957     0.75600
C997        C  0.59480831  0.43626617  0.98068203     0.78000
Cd998      Cd  0.54327866  0.38071476  0.95535730     1.37500
O999        O  0.99448341  0.38465310  0.95505480    -0.57000
O1000       O  0.58535002  0.43662264  0.95685116    -0.55800
C1001       C  0.51842008  0.31282152  0.96105184     0.78000
O1002       O  0.58312937  0.40922037  0.99193023    -0.58200
O1003       O  0.51467226  0.38587251  0.99424376    -0.56600
O1004       O  0.57131992  0.38132709  0.91301516    -0.56600
O1005       O  0.50255916  0.32492826  0.95211322    -0.55800
O1006       O  0.59170840  0.45119200  0.77414056    -0.57000
C1007       C  0.60337939  0.99479475  0.69997998     0.75600
O1008       O  0.65660973  0.44081950  0.71748173    -0.58200
C1009       C  0.59223966  0.42780118  0.78488511     0.75600
C1010       C  0.55285322  0.39362349  0.70047117     0.78000
Cd1011     Cd  0.60743173  0.44446778  0.72782049     1.37500
O1012       O  0.60115626  0.99213359  0.72572242    -0.57000
O1013       O  0.55080408  0.40751100  0.72150895    -0.55800
C1014       C  0.67594095  0.46947158  0.72390342     0.78000
O1015       O  0.58074473  0.40115953  0.69280030    -0.58200
O1016       O  0.60729055  0.47413355  0.68748901    -0.56600
O1017       O  0.60061384  0.41239949  0.76934147    -0.56600
O1018       O  0.66346012  0.48526366  0.73242421    -0.55800
O1019       O  0.89719312  0.36067661  0.57040074    -0.57000
C1020       C  0.88771985  0.39190348  0.64433841     0.75600
O1021       O  0.83427554  0.28489672  0.62772227    -0.58200
C1022       C  0.89557508  0.33643833  0.55908502     0.75600
C1023       C  0.93605402  0.33838278  0.64194501     0.78000
Cd1024     Cd  0.88178337  0.33725294  0.61623800     1.37500
O1025       O  0.88898796  0.39125320  0.61853664    -0.57000
O1026       O  0.93717488  0.34865052  0.61810942    -0.55800
C1027       C  0.81390656  0.29264863  0.62089061     0.78000
O1028       O  0.90885562  0.32457770  0.65311358    -0.58200
O1029       O  0.88437070  0.36765681  0.65663578    -0.56600
O1030       O  0.88680627  0.31232714  0.57419478    -0.56600
O1031       O  0.82500180  0.32038840  0.61155994    -0.55800
O1032       O  0.94559277  0.35881622  0.43220714    -0.57000
C1033       C  0.99165863  0.38730834  0.36247728     0.75600
O1034       O  0.93532025  0.27799747  0.38287410    -0.58200
C1035       C  0.92712028  0.33371375  0.44517825     0.75600
C1036       C  0.88828972  0.33225481  0.36086233     0.78000
Cd1037     Cd  0.94114283  0.33210631  0.38812498     1.37500
O1038       O  0.98868080  0.38515391  0.38817940    -0.57000
O1039       O  0.89803023  0.34360993  0.38427419    -0.55800
C1040       C  0.96462007  0.28744733  0.38609427     0.78000
O1041       O  0.90115438  0.31763838  0.35017370    -0.58200
O1042       O  0.97129039  0.36385038  0.34894541    -0.56600
O1043       O  0.91554104  0.30803995  0.43180091    -0.56600
O1044       O  0.98229727  0.31689487  0.38980725    -0.55800
C1045       C  0.90372590  0.33618367  0.52985614    -0.04600
C1046       C  0.90061243  0.30828957  0.51831854    -0.32100
C1047       C  0.90829856  0.30724482  0.49093636     0.37200
C1048       C  0.91933358  0.33437615  0.47435473    -0.05000
C1049       C  0.92274364  0.36237170  0.48586862    -0.32000
C1050       C  0.91507667  0.36345185  0.51328859     0.37100
H1051       H  0.89223919  0.28708157  0.53056953     0.17400
O1052       O  0.90514265  0.27956701  0.48068235    -0.59500
H1053       H  0.93109041  0.38349328  0.47349657     0.17500
O1054       O  0.91845299  0.39123327  0.52349899    -0.59600
H1055       H  0.94094642  0.40373096  0.52927051     0.44500
H1056       H  0.92536582  0.28024125  0.48512177     0.44400
C1057       C  0.52383914  0.37190247  0.68496323    -0.04600
C1058       C  0.49476927  0.35486301  0.69888482    -0.32100
C1059       C  0.96586257  0.34100742  0.68488367     0.37200
C1060       C  0.96555308  0.34478626  0.65641567    -0.05000
C1061       C  0.99473778  0.35943519  0.64230885    -0.32000
C1062       C  0.52363819  0.37277812  0.65629616     0.37100
H1063       H  0.49440135  0.35377320  0.72093286     0.17400
O1064       O  0.93813651  0.32632757  0.69957011    -0.59500
H1065       H  0.99525875  0.36237961  0.62041526     0.17500
O1066       O  0.55146674  0.38907433  0.64189572    -0.59600
H1067       H  0.55524958  0.41099315  0.64025541     0.44500
H1068       H  0.93165892  0.30347612  0.69942725     0.44400
C1069       C  0.56662970  0.40097596  0.86920839    -0.04600
C1070       C  0.56113488  0.42386605  0.85706226    -0.32100
C1071       C  0.56966745  0.43306439  0.82992250     0.37200
C1072       C  0.58341658  0.41883051  0.81395987    -0.05000
C1073       C  0.58844056  0.39549215  0.82602481    -0.32000
C1074       C  0.58051776  0.38680797  0.85343849     0.37100
H1075       H  0.55060357  0.43517790  0.86880261     0.17400
O1076       O  0.56382898  0.45561334  0.81914750    -0.59500
H1077       H  0.59875300  0.38401323  0.81423858     0.17500
O1078       O  0.58547441  0.36369973  0.86429507    -0.60800
H1079       H  0.60810377  0.37478550  0.86969764     0.44500
H1080       H  0.58282690  0.47623754  0.82363182     0.44400
C1081       C  0.96555224  0.38660780  0.99427237    -0.04600
C1082       C  0.93984463  0.38284710  0.97859509    -0.32100
C1083       C  0.91337636  0.38196709  0.99086307     0.37200
C1084       C  0.91228635  0.38509117  0.01941453    -0.05000
C1085       C  0.93799846  0.38886476  0.03506036    -0.32000
C1086       C  0.96434122  0.38951042  0.02282185     0.37100
H1087       H  0.94001522  0.38020612  0.95668672     0.17400
O1088       O  0.88856355  0.37749960  0.97470333    -0.59500
H1089       H  0.93771196  0.39118384  0.05699593     0.17500
O1090       O  0.98887431  0.39334806  0.03905563    -0.59600
H1091       H  0.98274503  0.37174734  0.04548988     0.44500
H1092       H  0.89414078  0.39913306  0.96834749     0.44400
C1093       C  0.86500405  0.33850400  0.34668148    -0.04600
C1094       C  0.84753335  0.34893355  0.36216973    -0.32100
C1095       C  0.83253687  0.36391865  0.34987623     0.37200
C1096       C  0.83511580  0.36908536  0.32152383    -0.05000
C1097       C  0.84953194  0.35544167  0.30575156    -0.32000
C1098       C  0.86422113  0.34009979  0.31806069     0.37100
H1099       H  0.84730941  0.34748575  0.38419438     0.17400
O1100       O  0.81837189  0.37629397  0.36613232    -0.59500
H1101       H  0.85137712  0.35855802  0.28384867     0.17500
O1102       O  0.88054049  0.32990100  0.30202422    -0.59600
H1103       H  0.86515146  0.30758236  0.29780283     0.44500
H1104       H  0.79750661  0.35798517  0.37119902     0.44400
C1105       C  0.82660927  0.42592666  0.19896804    -0.04600
C1106       C  0.85360478  0.44490613  0.18295620    -0.32100
C1107       C  0.85542020  0.43705185  0.15576789     0.37200
C1108       C  0.83012880  0.40950131  0.14417531    -0.05000
C1109       C  0.80284925  0.39106279  0.15996103    -0.32000
C1110       C  0.80084422  0.39908511  0.18698523     0.37100
H1111       H  0.87350484  0.46593584  0.19152506     0.17400
O1112       O  0.88193090  0.45661323  0.14075057    -0.59500
H1113       H  0.78298463  0.36996717  0.15143730     0.17500
O1114       O  0.77394031  0.37980217  0.20168188    -0.59600
H1115       H  0.75875025  0.38705054  0.19712290     0.44500
H1116       H  0.87747379  0.47268582  0.13270890     0.44400
C1117       C  0.88934588  0.41918428  0.65929882    -0.04600
C1118       C  0.89232169  0.44517794  0.64458505    -0.32100
C1119       C  0.89203417  0.47048276  0.65779781     0.37200
C1120       C  0.88839810  0.47015899  0.68639346    -0.05000
C1121       C  0.88634012  0.44459568  0.70127807    -0.32000
C1122       C  0.88689072  0.41931222  0.68801738     0.37100
H1123       H  0.89451894  0.44582463  0.62259523     0.17400
O1124       O  0.89486363  0.49520716  0.64233445    -0.59500
H1125       H  0.88372779  0.44387893  0.72323317     0.17500
O1126       O  0.88403843  0.39448270  0.70334597    -0.59600
H1127       H  0.90611776  0.39997768  0.70760223     0.44500
H1128       H  0.91787195  0.51089154  0.64202950     0.44400
C1129       C  0.77831377  0.01092374  0.71987545    -0.04600
C1130       C  0.76484371  0.03032663  0.72357018    -0.32100
C1131       C  0.73171798  0.01726195  0.72456799     0.37200
C1132       C  0.71120619  0.48406312  0.72177673    -0.05000
C1133       C  0.72480035  0.46495224  0.71684266    -0.32000
C1134       C  0.75789542  0.47805343  0.71585764     0.37100
H1135       H  0.78001692  0.05566878  0.72626429     0.17400
O1136       O  0.71972994  0.03730811  0.72774252    -0.59500
H1137       H  0.70974821  0.43963230  0.71394394     0.17500
O1138       O  0.77001231  0.45857486  0.71002435    -0.59600
H1139       H  0.76929569  0.44803006  0.72748278     0.44500
H1140       H  0.72045074  0.04135621  0.74759635     0.44400
C1141       C  0.50380202  0.27773136  0.96293195    -0.04600
C1142       C  0.97034824  0.25866850  0.96314028    -0.32100
C1143       C  0.95550818  0.22542247  0.96254154     0.37200
C1144       C  0.97398108  0.21055971  0.96099727    -0.05000
C1145       C  0.50741279  0.22962611  0.96152789    -0.32000
C1146       C  0.52222029  0.26279733  0.96283232     0.37100
H1147       H  0.95561700  0.26956441  0.96344342     0.17400
O1148       O  0.92301467  0.20789068  0.96220227    -0.59500
H1149       H  0.52222370  0.21883395  0.96066683     0.17500
O1150       O  0.55471210  0.28033670  0.96245584    -0.59600
H1151       H  0.56123325  0.28082176  0.98167624     0.44500
H1152       H  0.91649478  0.20431365  0.98169106     0.44400
C1153       C  0.86252798  0.02181524  0.98961135    -0.04600
C1154       C  0.84925719  0.99331137  0.97475820    -0.32100
C1155       C  0.83486775  0.46382829  0.98800587     0.37200
C1156       C  0.83421701  0.46267004  0.01671048    -0.05000
C1157       C  0.84469758  0.49108477  0.03134020    -0.32000
C1158       C  0.85869620  0.02049098  0.01807675     0.37100
H1159       H  0.85181054  0.99387529  0.95279422     0.17400
O1160       O  0.82468566  0.43678306  0.97280625    -0.59500
H1161       H  0.84429063  0.49084602  0.05340587     0.17500
O1162       O  0.87206605  0.04775665  0.03331344    -0.59600
H1163       H  0.85418802  0.05136711  0.03805921     0.44500
H1164       H  0.80173724  0.42793183  0.97093162     0.44400
C1165       C  0.90323029  0.07361450  0.80994012    -0.04600
C1166       C  0.88375325  0.08121496  0.82564202    -0.32100
C1167       C  0.89006549  0.08896186  0.85328449     0.37200
C1168       C  0.91648645  0.08950453  0.86566312    -0.05000
C1169       C  0.93636722  0.08265041  0.84965791    -0.32000
C1170       C  0.93003115  0.07494166  0.82206912     0.37100
H1171       H  0.86312257  0.08048300  0.81660608     0.17400
O1172       O  0.86973402  0.09510288  0.86807322    -0.59500
H1173       H  0.95697847  0.08319675  0.85852748     0.17500
O1174       O  0.95047095  0.06914366  0.80707951    -0.59600
H1175       H  0.96577628  0.08987825  0.79878175     0.44500
H1176       H  0.87719971  0.11793804  0.86497836     0.44400
C1177       C  0.71279695  0.22648563  0.62493490    -0.04600
C1178       C  0.72407697  0.25901853  0.62121634    -0.32100
C1179       C  0.75678057  0.28091224  0.62044643     0.37200
C1180       C  0.77905860  0.27046955  0.62333517    -0.05000
C1181       C  0.76769405  0.23815507  0.62827558    -0.32000
C1182       C  0.73505649  0.21633846  0.62919429     0.37100
H1183       H  0.70751610  0.26749441  0.61822828     0.17400
O1184       O  0.76657620  0.31237727  0.61645999    -0.59500
H1185       H  0.78418015  0.22954527  0.63100668     0.17500
O1186       O  0.72525231  0.18501449  0.63398731    -0.59600
H1187       H  0.72484129  0.18297668  0.65409821     0.44500
H1188       H  0.76858390  0.32133231  0.63499778     0.44400
C1189       C  0.52677999  0.14952403  0.65679209    -0.04600
C1190       C  0.99869575  0.13738172  0.64156386    -0.32100
C1191       C  0.96883419  0.12282536  0.65432740     0.37200
C1192       C  0.96656413  0.11993439  0.68294631    -0.05000
C1193       C  0.99476152  0.13486666  0.69821755    -0.32000
C1194       C  0.52459123  0.14977690  0.68541209     0.37100
H1195       H  0.99972859  0.13740283  0.61951409     0.17400
O1196       O  0.94215758  0.10935601  0.63846138    -0.59500
H1197       H  0.99382525  0.13343719  0.72024647     0.17500
O1198       O  0.55127250  0.16177376  0.70123658    -0.59600
H1199       H  0.55619646  0.18354089  0.70598592     0.44500
H1200       H  0.93660160  0.12622267  0.63600879     0.44400
C1201       C  0.60168405  0.07215804  0.65829043    -0.04600
C1202       C  0.60154548  0.04742781  0.64333759    -0.32100
C1203       C  0.60137576  0.02180388  0.65653373     0.37200
C1204       C  0.60177273  0.02066658  0.68529772    -0.05000
C1205       C  0.60095511  0.04490911  0.70019562    -0.32000
C1206       C  0.60077264  0.07031924  0.68702952     0.37100
H1207       H  0.60191362  0.04805455  0.62127938     0.17400
O1208       O  0.60112598  0.49811309  0.64097103    -0.59500
H1209       H  0.60076785  0.04441937  0.72225423     0.17500
O1210       O  0.59931790  0.09302264  0.70258809    -0.59600
H1211       H  0.62156159  0.10816834  0.70762153     0.44500
H1212       H  0.57846362  0.98206444  0.63892432     0.44400
C1213       C  0.50230116  0.22337936  0.38987812    -0.04600
C1214       C  0.52251727  0.25581934  0.38470664    -0.32100
C1215       C  0.51060171  0.27680093  0.38301807     0.37200
C1216       C  0.97767860  0.26546001  0.38620436    -0.05000
C1217       C  0.95736128  0.23287647  0.39050367    -0.32000
C1218       C  0.96931010  0.21196104  0.39249934     0.37100
H1219       H  0.54777620  0.26508619  0.38219567     0.17400
O1220       O  0.53124030  0.30814189  0.37732778    -0.59500
H1221       H  0.93205905  0.22353317  0.39275248     0.17500
O1222       O  0.94836540  0.18020953  0.39601279    -0.59600
H1223       H  0.94195036  0.17782882  0.41545718     0.44500
H1224       H  0.54070549  0.31797339  0.39510279     0.44400
C1225       C  0.56574223  0.15438077  0.47852980    -0.04600
C1226       C  0.58615505  0.18338986  0.49126891    -0.32100
C1227       C  0.59781584  0.18438132  0.51742258     0.37200
C1228       C  0.58891213  0.15600311  0.53166661    -0.05000
C1229       C  0.56904575  0.12690326  0.51876219    -0.32000
C1230       C  0.55749479  0.12589720  0.49245287     0.37100
H1231       H  0.59322322  0.20560139  0.48093388     0.17400
O1232       O  0.61778612  0.21334514  0.52887593    -0.59500
H1233       H  0.56184545  0.10477752  0.52930147     0.17500
O1234       O  0.53786593  0.09694169  0.48079917    -0.59600
H1235       H  0.55220518  0.09037763  0.47240074     0.44500
H1236       H  0.63941369  0.21863658  0.52285889     0.44400
C1237       C  0.95860258  0.07490786  0.35461336    -0.04600
C1238       C  0.95841891  0.07348005  0.32601628    -0.32100
C1239       C  0.93326747  0.04863460  0.31200852     0.37200
C1240       C  0.90743312  0.02447588  0.32652928    -0.05000
C1241       C  0.90751633  0.02596245  0.35513748    -0.32000
C1242       C  0.93266715  0.05087063  0.36915783     0.37100
H1243       H  0.97784613  0.09180141  0.31431158     0.17400
O1244       O  0.93385906  0.04880631  0.28408110    -0.59500
H1245       H  0.88795351  0.00773835  0.36679412     0.17500
O1246       O  0.93161015  0.05128024  0.39706907    -0.59600
H1247       H  0.91977114  0.06239086  0.40156368     0.44500
H1248       H  0.94630655  0.03847199  0.27895711     0.44400
C1249       C  0.75877819  0.48165822  0.28592598    -0.04600
C1250       C  0.72666138  0.46216713  0.29289249    -0.32100
C1251       C  0.70569928  0.47419040  0.29345225     0.37200
C1252       C  0.71676816  0.00645855  0.28760339    -0.05000
C1253       C  0.74885408  0.02590995  0.28075068    -0.32000
C1254       C  0.76959539  0.01378693  0.27948934     0.37100
H1255       H  0.71766549  0.43745025  0.29792679     0.17400
O1256       O  0.67464815  0.45432161  0.30070955    -0.59500
H1257       H  0.75792811  0.05068592  0.27589446     0.17500
O1258       O  0.80062969  0.03394057  0.27235594    -0.59600
H1259       H  0.80109973  0.03313881  0.25217724     0.44500
H1260       H  0.66424362  0.44210776  0.28398170     0.44400
C1261       C  0.64894633  0.12309555  0.32858722    -0.04600
C1262       C  0.63759844  0.14035647  0.31410870    -0.32100
C1263       C  0.62146472  0.15374651  0.32742893     0.37200
C1264       C  0.61637680  0.15004477  0.35578756    -0.05000
C1265       C  0.63091030  0.13600414  0.37056962    -0.32000
C1266       C  0.64720409  0.12277601  0.35727415     0.37100
H1267       H  0.63892159  0.14131949  0.29206971     0.17400
O1268       O  0.60767748  0.16706548  0.31207880    -0.59500
H1269       H  0.62779469  0.13330513  0.39245431     0.17500
O1270       O  0.65825106  0.10669484  0.37241215    -0.59600
H1271       H  0.68051330  0.12245192  0.37651235     0.44500
H1272       H  0.62322395  0.19003451  0.31187238     0.44400
C1273       C  0.51771950  0.41571956  0.34904502    -0.04600
C1274       C  0.54285772  0.43834353  0.36480478    -0.32100
C1275       C  0.56814773  0.46509886  0.35276377     0.37200
C1276       C  0.56869032  0.46978436  0.32433353    -0.05000
C1277       C  0.54318195  0.44749174  0.30863798    -0.32000
C1278       C  0.51795712  0.42059094  0.32069322     0.37100
H1279       H  0.54319491  0.43516578  0.38660932     0.17400
O1280       O  0.59214144  0.48649769  0.36910495    -0.59500
H1281       H  0.54291380  0.45063089  0.28682462     0.17500
O1282       O  0.49339567  0.39960040  0.30459795    -0.59600
H1283       H  0.50123102  0.38656237  0.29552116     0.44500
H1284       H  0.60617863  0.47743470  0.37200668     0.44400
C1285       C  0.71898144  0.21364271  0.05596160    -0.04600
C1286       C  0.75119004  0.22501469  0.06144549    -0.32100
C1287       C  0.77307720  0.25773678  0.06193606     0.37200
C1288       C  0.76294171  0.27996226  0.05703605    -0.05000
C1289       C  0.73085112  0.26848131  0.05095867    -0.32000
C1290       C  0.70907108  0.23582299  0.05031984     0.37100
H1291       H  0.75940530  0.20849908  0.06580863     0.17400
O1292       O  0.80424328  0.26761516  0.06755461    -0.59500
H1293       H  0.72245708  0.28488406  0.04674751     0.17500
O1294       O  0.67808045  0.22589207  0.04396861    -0.59600
H1295       H  0.67652449  0.22194299  0.02406966     0.44500
H1296       H  0.81384252  0.26716295  0.04981225     0.44400
C1297       C  0.63804099  0.02490406  0.02302068    -0.04600
C1298       C  0.64544527  0.02402414  0.99544369    -0.32100
C1299       C  0.63422225  0.49513668  0.98151799     0.37200
C1300       C  0.61528716  0.46629830  0.99549046    -0.05000
C1301       C  0.61099534  0.46722881  0.02365393    -0.32000
C1302       C  0.62155838  0.99595666  0.03744798     0.37100
H1303       H  0.65843929  0.04587072  0.98400010     0.17400
O1304       O  0.64035673  0.49519708  0.95422180    -0.59500
H1305       H  0.59678357  0.44542605  0.03489001     0.17500
O1306       O  0.61523602  0.99560824  0.06475418    -0.59600
H1307       H  0.59332874  0.49005869  0.06596469     0.44500
H1308       H  0.66019408  0.99382451  0.95366774     0.44400
C1309       C  0.65158399  0.07060458  0.20050776    -0.04600
C1310       C  0.67134134  0.06789801  0.18111092    -0.32100
C1311       C  0.67090996  0.07612675  0.15386795     0.37200
C1312       C  0.65124149  0.08831174  0.14579617    -0.05000
C1313       C  0.63179110  0.09139017  0.16536511    -0.32000
C1314       C  0.63178896  0.08254795  0.19250128     0.37100
H1315       H  0.68657522  0.05859823  0.18696808     0.17400
O1316       O  0.68927459  0.07143432  0.13523026    -0.59500
H1317       H  0.61671717  0.10093155  0.15968036     0.17500
O1318       O  0.61351117  0.08711610  0.21132159    -0.59600
H1319       H  0.59240038  0.06762025  0.21052672     0.44500
H1320       H  0.67501054  0.05024407  0.12718537     0.44400
C1321       C  0.51287610  0.10412031  0.99494552    -0.04600
C1322       C  0.53544409  0.10066759  0.97966856    -0.32100
C1323       C  0.56150845  0.10128522  0.99218748     0.37200
C1324       C  0.56542914  0.10518954  0.02066507    -0.05000
C1325       C  0.54240177  0.10776714  0.03607692    -0.32000
C1326       C  0.51645767  0.10749174  0.02349777     0.37100
H1327       H  0.53314959  0.09778291  0.95776354     0.17400
O1328       O  0.58263885  0.09742549  0.97633665    -0.59500
H1329       H  0.54473562  0.11056786  0.05798567     0.17500
O1330       O  0.49468928  0.11027221  0.03939421    -0.59600
H1331       H  0.50468882  0.13317356  0.04381035     0.44500
H1332       H  0.59755621  0.11886364  0.96907290     0.44400
O1333       O  0.59489337  0.60563177  0.06019261    -0.57000
C1334       C  0.65069816  0.59746932  0.11712762     0.75600
O1335       O  0.66343101  0.58261035  0.02586494    -0.58200
C1336       C  0.59333220  0.60707247  0.03449089     0.75600
C1337       C  0.69565000  0.67893186  0.05697331     0.78000
Cd1338     Cd  0.64844212  0.61150023  0.06049562     1.37500
O1339       O  0.62702536  0.59833891  0.10744279    -0.57000
O1340       O  0.70353749  0.65795005  0.05324453    -0.55800
C1341       C  0.64426170  0.55537260  0.03554863     0.78000
O1342       O  0.66660046  0.66865185  0.06188365    -0.58200
O1343       O  0.67350438  0.60431974  0.10087357    -0.56600
O1344       O  0.61730856  0.61078555  0.02115963    -0.56600
O1345       O  0.62885814  0.55503520  0.05643653    -0.55800
O1346       O  0.59833549  0.99993773  0.28509778    -0.57000
C1347       C  0.65214874  0.56129891  0.22896688     0.75600
O1348       O  0.66671481  0.58460269  0.32458818    -0.58200
C1349       C  0.59636335  0.99666075  0.31079095     0.75600
C1350       C  0.69541142  0.52023534  0.28776302     0.78000
Cd1351     Cd  0.65279069  0.54624855  0.28552393     1.37500
O1352       O  0.62671713  0.54542093  0.24246584    -0.57000
O1353       O  0.66566477  0.50297237  0.28581039    -0.55800
C1354       C  0.65547501  0.60036716  0.31346638     0.78000
O1355       O  0.70583036  0.54989512  0.28932393    -0.58200
O1356       O  0.67785377  0.56895188  0.24119714    -0.56600
O1357       O  0.61980890  0.51698106  0.32420663    -0.56600
O1358       O  0.64721958  0.59354431  0.28893808    -0.55800
O1359       O  0.98738003  0.60443625  0.39428712    -0.57000
C1360       C  0.55446769  0.65458038  0.45054322     0.75600
O1361       O  0.58124841  0.67229755  0.35964696    -0.58200
C1362       C  0.98558001  0.60180883  0.36860248     0.75600
C1363       C  0.51537252  0.70154859  0.39206720     0.78000
Cd1364     Cd  0.53758531  0.65569783  0.39472105     1.37500
O1365       O  0.53464368  0.62942875  0.43840770    -0.57000
O1366       O  0.50004651  0.67489892  0.40369942    -0.55800
C1367       C  0.59182983  0.65528809  0.36951264     0.78000
O1368       O  0.54224101  0.70816595  0.38231133    -0.58200
O1369       O  0.56490399  0.68018336  0.43719471    -0.56600
O1370       O  0.50824854  0.62369985  0.35519386    -0.56600
O1371       O  0.57883991  0.64089007  0.39133707    -0.55800
O1372       O  0.59594417  0.63215580  0.57191158    -0.57000
C1373       C  0.60403300  0.60007740  0.64388528     0.75600
O1374       O  0.65721338  0.71135102  0.62524768    -0.58200
C1375       C  0.59845740  0.65660434  0.56038456     0.75600
C1376       C  0.55680679  0.65607257  0.64286992     0.78000
Cd1377     Cd  0.61110594  0.65646868  0.61761324     1.37500
O1378       O  0.60369317  0.60183686  0.61812199    -0.57000
O1379       O  0.55622926  0.64572680  0.61914777    -0.55800
C1380       C  0.67826955  0.70333963  0.62311795     0.78000
O1381       O  0.58367165  0.66971688  0.65440053    -0.58200
O1382       O  0.60723867  0.62399843  0.65682607    -0.56600
O1383       O  0.60833690  0.68115431  0.57507146    -0.56600
O1384       O  0.66814095  0.67424957  0.61871292    -0.55800
O1385       O  0.98334581  0.60191471  0.95512031    -0.57000
C1386       C  0.92348558  0.59662709  0.89509022     0.75600
O1387       O  0.89085121  0.57883936  0.98412158    -0.58200
C1388       C  0.98628975  0.60490091  0.98078320     0.75600
C1389       C  0.95978186  0.67559948  0.95793216     0.78000
Cd1390     Cd  0.93654352  0.60823280  0.95234162     1.37500
O1391       O  0.94718057  0.59692637  0.90602813    -0.57000
O1392       O  0.97653574  0.66398001  0.94988958    -0.55800
C1393       C  0.88521110  0.55172816  0.97588404     0.78000
O1394       O  0.93084802  0.65580081  0.96312499    -0.58200
O1395       O  0.90622689  0.60253070  0.91067694    -0.56600
O1396       O  0.96577684  0.60898276  0.99328424    -0.56600
O1397       O  0.90174870  0.55137846  0.95611196    -0.55800
O1398       O  0.90226950  0.54505950  0.76961366    -0.57000
C1399       C  0.88596448  0.99590085  0.70041998     0.75600
O1400       O  0.83333855  0.55340910  0.71590476    -0.58200
C1401       C  0.89530381  0.56416612  0.78115944     0.75600
C1402       C  0.93621907  0.59813365  0.69707328     0.78000
Cd1403     Cd  0.88127949  0.54727108  0.72477297     1.37500
O1404       O  0.88681872  0.99887497  0.72615720    -0.57000
O1405       O  0.93577021  0.59214411  0.72212589    -0.55800
C1406       C  0.81342647  0.52453367  0.72111691     0.78000
O1407       O  0.90984988  0.58282737  0.68489364    -0.58200
O1408       O  0.88284887  0.51628784  0.68704242    -0.56600
O1409       O  0.88113677  0.57481896  0.76676673    -0.56600
O1410       O  0.82506742  0.50745072  0.72788730    -0.55800
O1411       O  0.88050292  0.49292870  0.28702960    -0.57000
C1412       C  0.82614767  0.93372993  0.22810264     0.75600
O1413       O  0.81335072  0.90469951  0.32061652    -0.58200
C1414       C  0.88023096  0.49774008  0.31237921     0.75600
C1415       C  0.78081345  0.96867280  0.28589128     0.78000
Cd1416     Cd  0.82645469  0.94678849  0.28508812     1.37500
O1417       O  0.85083415  0.95508327  0.23981218    -0.57000
O1418       O  0.80908891  0.98516312  0.27762395    -0.55800
C1419       C  0.82848051  0.89305191  0.30872342     0.78000
O1420       O  0.77281914  0.94091881  0.29418624    -0.58200
O1421       O  0.80149532  0.91909828  0.24280819    -0.56600
O1422       O  0.85519423  0.97872541  0.32503206    -0.56600
O1423       O  0.83985418  0.90453000  0.28561481    -0.55800
O1424       O  0.85663970  0.90934602  0.10256993    -0.57000
C1425       C  0.88478102  0.88439843  0.03331859     0.75600
O1426       O  0.77710818  0.83505968  0.05154502    -0.58200
C1427       C  0.83087587  0.89979886  0.11563570     0.75600
C1428       C  0.82886385  0.93386848  0.03160620     0.78000
Cd1429     Cd  0.83063099  0.88233224  0.05944193     1.37500
O1430       O  0.88422992  0.88849210  0.05880107    -0.57000
O1431       O  0.83799497  0.93573068  0.05587939    -0.55800
C1432       C  0.78521398  0.81483375  0.05803665     0.78000
O1433       O  0.81736477  0.90679087  0.02055101    -0.58200
O1434       O  0.86053498  0.87982484  0.02027792    -0.56600
O1435       O  0.80559075  0.88135755  0.10299859    -0.56600
O1436       O  0.81367200  0.82607688  0.06550191    -0.55800
O1437       O  0.53774861  0.89784018  0.90989726    -0.57000
C1438       C  0.99255057  0.88595573  0.98077178     0.75600
O1439       O  0.54710460  0.83227024  0.96764127    -0.58200
C1440       C  0.55823654  0.89292337  0.89826293     0.75600
C1441       C  0.59471907  0.93606578  0.98084470     0.78000
Cd1442     Cd  0.54329726  0.88064383  0.95531889     1.37500
O1443       O  0.99443153  0.88456353  0.95508546    -0.57000
O1444       O  0.58562433  0.93644107  0.95687315    -0.55800
C1445       C  0.51861157  0.81278544  0.96097632     0.78000
O1446       O  0.58278158  0.90902718  0.99213811    -0.58200
O1447       O  0.51475059  0.88590957  0.99420367    -0.56600
O1448       O  0.57144315  0.88147120  0.91298072    -0.56600
O1449       O  0.50271460  0.82485328  0.95204135    -0.55800
O1450       O  0.59179866  0.95129643  0.77410861    -0.57000
C1451       C  0.60332812  0.49467947  0.69996265     0.75600
O1452       O  0.65659523  0.94091929  0.71737311    -0.58200
C1453       C  0.59235699  0.92791890  0.78485220     0.75600
C1454       C  0.55290436  0.89374388  0.70042124     0.78000
Cd1455     Cd  0.60746718  0.94456989  0.72778396     1.37500
O1456       O  0.60117244  0.49206894  0.72571077    -0.57000
O1457       O  0.55085322  0.90748978  0.72155659    -0.55800
C1458       C  0.67593151  0.96955640  0.72383210     0.78000
O1459       O  0.58079915  0.90140706  0.69266260    -0.58200
O1460       O  0.60738839  0.97428646  0.68749498    -0.56600
O1461       O  0.60072842  0.91251871  0.76930165    -0.56600
O1462       O  0.66347119  0.98534712  0.73240332    -0.55800
O1463       O  0.89745393  0.86088519  0.57039593    -0.57000
C1464       C  0.88779180  0.89193734  0.64431663     0.75600
O1465       O  0.83435457  0.78491162  0.62749443    -0.58200
C1466       C  0.89577706  0.83663864  0.55904451     0.75600
C1467       C  0.93610361  0.83840718  0.64189857     0.78000
Cd1468     Cd  0.88187465  0.83732155  0.61617919     1.37500
O1469       O  0.88902036  0.89128420  0.61851283    -0.57000
O1470       O  0.93724238  0.84869617  0.61806938    -0.55800
C1471       C  0.81398593  0.79271445  0.62079171     0.78000
O1472       O  0.90889610  0.82457773  0.65305107    -0.58200
O1473       O  0.88450337  0.86770897  0.65660671    -0.56600
O1474       O  0.88690852  0.81247800  0.57411097    -0.56600
O1475       O  0.82508384  0.82050932  0.61158900    -0.55800
O1476       O  0.94532018  0.85898956  0.43202589    -0.57000
C1477       C  0.99160565  0.88741824  0.36245192     0.75600
O1478       O  0.93530774  0.77810476  0.38261587    -0.58200
C1479       C  0.92711554  0.83387308  0.44509418     0.75600
C1480       C  0.88817384  0.83223205  0.36083378     0.78000
Cd1481     Cd  0.94108714  0.83217855  0.38804884     1.37500
O1482       O  0.98876009  0.88512800  0.38815644    -0.57000
O1483       O  0.89776771  0.84338704  0.38432500    -0.55800
C1484       C  0.96458317  0.78753550  0.38598711     0.78000
O1485       O  0.90118243  0.81780050  0.35005598    -0.58200
O1486       O  0.97108640  0.86409136  0.34889440    -0.56600
O1487       O  0.91575015  0.80815154  0.43180567    -0.56600
O1488       O  0.98222924  0.81695872  0.38985267    -0.55800
C1489       C  0.90394395  0.83641006  0.52981913    -0.04600
C1490       C  0.90103208  0.80858160  0.51832377    -0.32100
C1491       C  0.90865997  0.80752371  0.49093068     0.37200
C1492       C  0.91940850  0.83456863  0.47428589    -0.05000
C1493       C  0.92264309  0.86251218  0.48576139    -0.32000
C1494       C  0.91506365  0.86361424  0.51320376     0.37100
H1495       H  0.89286313  0.78743279  0.53061691     0.17400
O1496       O  0.90572505  0.77991689  0.48072715    -0.59500
H1497       H  0.93078823  0.88357329  0.47334552     0.17500
O1498       O  0.91827264  0.89134038  0.52338396    -0.59600
H1499       H  0.94080033  0.90401921  0.52902048     0.44500
H1500       H  0.92606090  0.78080128  0.48513441     0.44400
C1501       C  0.52388300  0.87202950  0.68491777    -0.04600
C1502       C  0.49481158  0.85503177  0.69884380    -0.32100
C1503       C  0.96590757  0.84113802  0.68486024     0.37200
C1504       C  0.96559672  0.84483122  0.65638358    -0.05000
C1505       C  0.99477930  0.85944678  0.64227359    -0.32000
C1506       C  0.52368437  0.87282859  0.65624668     0.37100
H1507       H  0.49443798  0.85399687  0.72089413     0.17400
O1508       O  0.93817885  0.82651362  0.69954590    -0.59500
H1509       H  0.99529690  0.86233055  0.62037261     0.17500
O1510       O  0.55151312  0.88906743  0.64183687    -0.59600
H1511       H  0.55529452  0.91097970  0.64011506     0.44500
H1512       H  0.93217379  0.80380052  0.70012731     0.44400
C1513       C  0.56668824  0.90104747  0.86916451    -0.04600
C1514       C  0.56125979  0.92398856  0.85703537    -0.32100
C1515       C  0.56984710  0.93322654  0.82990852     0.37200
C1516       C  0.58354482  0.91895205  0.81393059    -0.05000
C1517       C  0.58850702  0.89556687  0.82598031    -0.32000
C1518       C  0.58055805  0.88686472  0.85338834     0.37100
H1519       H  0.55075850  0.93532229  0.86878584     0.17400
O1520       O  0.56413377  0.95587355  0.81916658    -0.59500
H1521       H  0.59879047  0.88406496  0.81418711     0.17500
O1522       O  0.58547372  0.86372592  0.86423473    -0.60800
H1523       H  0.60807628  0.87480217  0.86971920     0.44500
H1524       H  0.58320299  0.97644789  0.82363953     0.44400
C1525       C  0.96555530  0.88655654  0.99434620    -0.04600
C1526       C  0.93985981  0.88285844  0.97869022    -0.32100
C1527       C  0.91337233  0.88191010  0.99098586     0.37200
C1528       C  0.91226254  0.88495472  0.01954660    -0.05000
C1529       C  0.93795754  0.88865287  0.03517946    -0.32000
C1530       C  0.96430798  0.88932762  0.02291188     0.37100
H1531       H  0.94004135  0.88029115  0.95677401     0.17400
O1532       O  0.88852892  0.87739048  0.97484323    -0.59500
H1533       H  0.93765092  0.89089150  0.05712236     0.17500
O1534       O  0.98879660  0.89302927  0.03913694    -0.59600
H1535       H  0.98267642  0.87136719  0.04538865     0.44500
H1536       H  0.89406073  0.89900695  0.96848339     0.44400
C1537       C  0.86492722  0.83854574  0.34666042    -0.04600
C1538       C  0.84756906  0.84910957  0.36214969    -0.32100
C1539       C  0.83268512  0.86420035  0.34985271     0.37200
C1540       C  0.83523883  0.86931201  0.32149558    -0.05000
C1541       C  0.84953020  0.85554539  0.30572448    -0.32000
C1542       C  0.86411209  0.84010184  0.31803751     0.37100
H1543       H  0.84736927  0.84770197  0.38417598     0.17400
O1544       O  0.81867832  0.87673967  0.36610789    -0.59500
H1545       H  0.85134397  0.85861979  0.28381694     0.17500
O1546       O  0.88028360  0.82973506  0.30199736    -0.59600
H1547       H  0.86471649  0.80752058  0.29761677     0.44500
H1548       H  0.79762453  0.85857000  0.37096091     0.44400
C1549       C  0.82644993  0.92588700  0.19892755    -0.04600
C1550       C  0.85332377  0.94498155  0.18283170    -0.32100
C1551       C  0.85510596  0.93710326  0.15565068     0.37200
C1552       C  0.82989249  0.90943488  0.14413833    -0.05000
C1553       C  0.80272032  0.89086801  0.16000400    -0.32000
C1554       C  0.80076417  0.89888774  0.18704222     0.37100
H1555       H  0.87316130  0.96611715  0.19133269     0.17400
O1556       O  0.88151812  0.95675008  0.14056254    -0.59500
H1557       H  0.78292943  0.86966291  0.15154204     0.17500
O1558       O  0.77402600  0.87943199  0.20186028    -0.59600
H1559       H  0.75857362  0.88634020  0.19728867     0.44500
H1560       H  0.87684371  0.97262934  0.13242471     0.44400
C1561       C  0.88938852  0.91920120  0.65928370    -0.04600
C1562       C  0.89241869  0.94522203  0.64457653    -0.32100
C1563       C  0.89208806  0.97050629  0.65778758     0.37200
C1564       C  0.88836040  0.97013759  0.68637431    -0.05000
C1565       C  0.88624992  0.94454836  0.70125458    -0.32000
C1566       C  0.88683849  0.91928276  0.68799611     0.37100
H1567       H  0.89469308  0.94590647  0.62259217     0.17400
O1568       O  0.89497582  0.99525972  0.64233169    -0.59500
H1569       H  0.88356224  0.94379576  0.72320320     0.17500
O1570       O  0.88391928  0.89442095  0.70331743    -0.59600
H1571       H  0.90597874  0.89990405  0.70764104     0.44500
H1572       H  0.91797749  0.01096852  0.64213013     0.44400
C1573       C  0.77835642  0.51093140  0.71983849    -0.04600
C1574       C  0.76486141  0.53029280  0.72366985    -0.32100
C1575       C  0.73172968  0.51719778  0.72470749     0.37200
C1576       C  0.71118271  0.98412243  0.72171186    -0.05000
C1577       C  0.72475000  0.96496649  0.71690951    -0.32000
C1578       C  0.75783693  0.97802995  0.71599595     0.37100
H1579       H  0.78002087  0.55562558  0.72643585     0.17400
O1580       O  0.71972367  0.53721563  0.72798751    -0.59500
H1581       H  0.70968238  0.93963571  0.71408821     0.17500
O1582       O  0.76992870  0.95848625  0.71036001    -0.59600
H1583       H  0.76922764  0.94809732  0.72790384     0.44500
H1584       H  0.72048165  0.54121558  0.74785260     0.44400
C1585       C  0.50402267  0.77770406  0.96286287    -0.04600
C1586       C  0.97053930  0.75867125  0.96309397    -0.32100
C1587       C  0.95568267  0.72543170  0.96249051     0.37200
C1588       C  0.97413368  0.71054878  0.96096750    -0.05000
C1589       C  0.50760398  0.72958079  0.96144015    -0.32000
C1590       C  0.52243322  0.76275919  0.96274979     0.37100
H1591       H  0.95581629  0.76957633  0.96338674     0.17400
O1592       O  0.92318924  0.70792283  0.96211036    -0.59500
H1593       H  0.52239286  0.71876433  0.96056945     0.17500
O1594       O  0.55492640  0.78029094  0.96236888    -0.59600
H1595       H  0.56145345  0.78073478  0.98158273     0.44500
H1596       H  0.91662755  0.70447407  0.98159026     0.44400
C1597       C  0.86247619  0.52172764  0.98951685    -0.04600
C1598       C  0.84917396  0.49321211  0.97467648    -0.32100
C1599       C  0.83498551  0.96392081  0.98806829     0.37200
C1600       C  0.83432046  0.96273700  0.01677096    -0.05000
C1601       C  0.84475463  0.99113547  0.03141881    -0.32000
C1602       C  0.85867693  0.52042864  0.01798338     0.37100
H1603       H  0.85171862  0.49376040  0.95271216     0.17400
O1604       O  0.82485445  0.93689734  0.97284917    -0.59500
H1605       H  0.84432153  0.99087447  0.05348417     0.17500
O1606       O  0.87214195  0.54770600  0.03320617    -0.59600
H1607       H  0.85427803  0.55126612  0.03814056     0.44500
H1608       H  0.80190203  0.92800562  0.97097664     0.44400
C1609       C  0.90317321  0.57350016  0.80999313    -0.04600
C1610       C  0.88362048  0.58099229  0.82570452    -0.32100
C1611       C  0.88993047  0.58876918  0.85334260     0.37200
C1612       C  0.91641219  0.58943004  0.86571226    -0.05000
C1613       C  0.93635135  0.58266079  0.84970464    -0.32000
C1614       C  0.93002703  0.57493677  0.82211846     0.37100
H1615       H  0.86294614  0.58017357  0.81667495     0.17400
O1616       O  0.86954625  0.59483320  0.86813364    -0.59500
H1617       H  0.95700886  0.58329803  0.85856792     0.17500
O1618       O  0.95053734  0.56924356  0.80712712    -0.59600
H1619       H  0.96578058  0.58999718  0.79882949     0.44500
H1620       H  0.87689216  0.61762502  0.86498194     0.44400
C1621       C  0.71287798  0.72654638  0.62493653    -0.04600
C1622       C  0.72414791  0.75908013  0.62123366    -0.32100
C1623       C  0.75685209  0.78097882  0.62043786     0.37200
C1624       C  0.77913722  0.77053404  0.62325432    -0.05000
C1625       C  0.76778073  0.73821779  0.62817997    -0.32000
C1626       C  0.73514633  0.71640485  0.62915803     0.37100
H1627       H  0.70757929  0.76755426  0.61828733     0.17400
O1628       O  0.76664149  0.81245119  0.61650890    -0.59500
H1629       H  0.78427034  0.72960633  0.63087482     0.17500
O1630       O  0.72535226  0.68509049  0.63398867    -0.59600
H1631       H  0.72489245  0.68307311  0.65410347     0.44500
H1632       H  0.76842817  0.82131444  0.63505673     0.44400
C1633       C  0.52689479  0.64956226  0.65676741    -0.04600
C1634       C  0.99878548  0.63748933  0.64156319    -0.32100
C1635       C  0.96893019  0.62295259  0.65434195     0.37200
C1636       C  0.96667160  0.62000848  0.68295932    -0.05000
C1637       C  0.99488231  0.63487303  0.69821757    -0.32000
C1638       C  0.52472775  0.64973361  0.68539059     0.37100
H1639       H  0.99980978  0.63755044  0.61951210     0.17400
O1640       O  0.94224306  0.60955648  0.63848877    -0.59500
H1641       H  0.99395955  0.63339443  0.72024406     0.17500
O1642       O  0.55141505  0.66160854  0.70119660    -0.59600
H1643       H  0.55657974  0.68348157  0.70579382     0.44500
H1644       H  0.93682443  0.62650878  0.63596234     0.44400
C1645       C  0.60165974  0.57206337  0.65824322    -0.04600
C1646       C  0.60148649  0.54730895  0.64329636    -0.32100
C1647       C  0.60130110  0.52167439  0.65650010     0.37200
C1648       C  0.60170343  0.52054196  0.68526553    -0.05000
C1649       C  0.60088593  0.54479087  0.70015416    -0.32000
C1650       C  0.60073060  0.57021451  0.68698237     0.37100
H1651       H  0.60185868  0.54793495  0.62123826     0.17400
O1652       O  0.60119928  0.99824638  0.64099840    -0.59500
H1653       H  0.60069048  0.54430319  0.72221281     0.17500
O1654       O  0.59929307  0.59292903  0.70253762    -0.59600
H1655       H  0.62153484  0.60803685  0.70760768     0.44500
H1656       H  0.57839297  0.48191630  0.63891949     0.44400
C1657       C  0.50220549  0.72338899  0.38987988    -0.04600
C1658       C  0.52245633  0.75584893  0.38481160    -0.32100
C1659       C  0.51055797  0.77684520  0.38309729     0.37200
C1660       C  0.97764280  0.76554784  0.38611198    -0.05000
C1661       C  0.95730269  0.73295057  0.39030977    -0.32000
C1662       C  0.96923896  0.71202823  0.39235264     0.37100
H1663       H  0.54772788  0.76511959  0.38240512     0.17400
O1664       O  0.53123727  0.80821133  0.37753471    -0.59500
H1665       H  0.93198911  0.72360171  0.39245787     0.17500
O1666       O  0.94827176  0.68027354  0.39580833    -0.59600
H1667       H  0.94180967  0.67785657  0.41524259     0.44500
H1668       H  0.54056234  0.81796584  0.39536730     0.44400
C1669       C  0.56563275  0.65439055  0.47857329    -0.04600
C1670       C  0.58596207  0.68344000  0.49130096    -0.32100
C1671       C  0.59771510  0.68450532  0.51743234     0.37200
C1672       C  0.58899357  0.65615963  0.53166170    -0.05000
C1673       C  0.56920476  0.62702926  0.51877192    -0.32000
C1674       C  0.55756045  0.62594901  0.49249026     0.37100
H1675       H  0.59290003  0.70562558  0.48097103     0.17400
O1676       O  0.61759324  0.71350285  0.52887514    -0.59500
H1677       H  0.56213245  0.60492699  0.52930459     0.17500
O1678       O  0.53800251  0.59695864  0.48086299    -0.59600
H1679       H  0.55239218  0.59042642  0.47251542     0.44500
H1680       H  0.63924478  0.71889197  0.52284734     0.44400
C1681       C  0.95858603  0.57482036  0.35460655    -0.04600
C1682       C  0.95835762  0.57341352  0.32600489    -0.32100
C1683       C  0.93322587  0.54852185  0.31201004     0.37200
C1684       C  0.90747179  0.52429206  0.32655085    -0.05000
C1685       C  0.90760403  0.52575656  0.35515823    -0.32000
C1686       C  0.93271692  0.55071789  0.36916248     0.37100
H1687       H  0.97772202  0.59179414  0.31428989     0.17400
O1688       O  0.93373253  0.54873354  0.28408079    -0.59500
H1689       H  0.88809722  0.50748240  0.36682794     0.17500
O1690       O  0.93168427  0.55111946  0.39707399    -0.59600
H1691       H  0.91977017  0.56214926  0.40158672     0.44500
H1692       H  0.94630808  0.53855935  0.27888130     0.44400
C1693       C  0.75874813  0.98162793  0.28594594    -0.04600
C1694       C  0.72658615  0.96206346  0.29273211    -0.32100
C1695       C  0.70561550  0.97407894  0.29331905     0.37200
C1696       C  0.71681729  0.50652009  0.28754791    -0.05000
C1697       C  0.74885281  0.52589878  0.28048715    -0.32000
C1698       C  0.76958222  0.51375362  0.27924052     0.37100
H1699       H  0.71756553  0.93730244  0.29760745     0.17400
O1700       O  0.67452538  0.95415597  0.30043184    -0.59500
H1701       H  0.75789259  0.55062771  0.27546427     0.17500
O1702       O  0.80056277  0.53382442  0.27189896    -0.59600
H1703       H  0.80086326  0.53285965  0.25172225     0.44500
H1704       H  0.66424136  0.94197123  0.28366512     0.44400
C1705       C  0.64870451  0.62299659  0.32853485    -0.04600
C1706       C  0.63709300  0.64001181  0.31404179    -0.32100
C1707       C  0.62099560  0.65342134  0.32737670     0.37200
C1708       C  0.61620116  0.64999683  0.35577658    -0.05000
C1709       C  0.63098190  0.63619703  0.37055293    -0.32000
C1710       C  0.64726229  0.62295802  0.35723042     0.37100
H1711       H  0.63819350  0.64077118  0.29199331     0.17400
O1712       O  0.60696769  0.66649343  0.31202519    -0.59500
H1713       H  0.62809736  0.63371290  0.39246484     0.17500
O1714       O  0.65863684  0.60717325  0.37237466    -0.59600
H1715       H  0.68074630  0.62321173  0.37665942     0.44500
H1716       H  0.62244648  0.68947478  0.31162335     0.44400
C1717       C  0.51766652  0.91583923  0.34905916    -0.04600
C1718       C  0.54289536  0.93834360  0.36481472    -0.32100
C1719       C  0.56821268  0.96508804  0.35278929     0.37200
C1720       C  0.56869096  0.96987948  0.32438095    -0.05000
C1721       C  0.54309666  0.94770780  0.30869303    -0.32000
C1722       C  0.51784170  0.92082411  0.32073194     0.37100
H1723       H  0.54328352  0.93507752  0.38660064     0.17400
O1724       O  0.59229908  0.98636757  0.36912228    -0.59500
H1725       H  0.54278218  0.95092941  0.28689634     0.17500
O1726       O  0.49320513  0.89995231  0.30464132    -0.59600
H1727       H  0.50082346  0.88665551  0.29570700     0.44500
H1728       H  0.60626778  0.97720371  0.37192000     0.44400
C1729       C  0.71884218  0.71361904  0.05601735    -0.04600
C1730       C  0.75107842  0.72500752  0.06138359    -0.32100
C1731       C  0.77295466  0.75772851  0.06182179     0.37200
C1732       C  0.76277767  0.77993974  0.05702076    -0.05000
C1733       C  0.73065272  0.76844569  0.05108247    -0.32000
C1734       C  0.70888654  0.73578321  0.05046480     0.37100
H1735       H  0.75933304  0.70850530  0.06566419     0.17400
O1736       O  0.80416452  0.76761955  0.06725312    -0.59500
H1737       H  0.72222753  0.78483994  0.04695075     0.17500
O1738       O  0.67786970  0.72583234  0.04420107    -0.59600
H1739       H  0.67622343  0.72178489  0.02431733     0.44500
H1740       H  0.81368697  0.76738183  0.04941080     0.44400
C1741       C  0.63838839  0.52512772  0.02278413    -0.04600
C1742       C  0.64560904  0.52424817  0.99515718    -0.32100
C1743       C  0.63412661  0.99492458  0.98180626     0.37200
C1744       C  0.61506758  0.96608056  0.99572425    -0.05000
C1745       C  0.61053063  0.96699411  0.02385257    -0.32000
C1746       C  0.62209647  0.49619673  0.03725064     0.37100
H1747       H  0.65847286  0.54609176  0.98368708     0.17400
O1748       O  0.64045740  0.99500641  0.95455078    -0.59500
H1749       H  0.59620068  0.94518587  0.03504761     0.17500
O1750       O  0.61602483  0.49587450  0.06460735    -0.59600
H1751       H  0.59254297  0.98984261  0.06593543     0.44500
H1752       H  0.65993383  0.49372750  0.95320033     0.44400
C1753       C  0.65187610  0.57078584  0.20050022    -0.04600
C1754       C  0.67158598  0.56802591  0.18108698    -0.32100
C1755       C  0.67116540  0.57629109  0.15384950     0.37200
C1756       C  0.65156595  0.58857069  0.14581022    -0.05000
C1757       C  0.63221444  0.59175875  0.16541227    -0.32000
C1758       C  0.63218988  0.58286841  0.19253501     0.37100
H1759       H  0.68674502  0.55863006  0.18692126     0.17400
O1760       O  0.68943146  0.57149794  0.13517857    -0.59500
H1761       H  0.61720642  0.60138608  0.15975521     0.17500
O1762       O  0.61397163  0.58748853  0.21138151    -0.59600
H1763       H  0.59287437  0.56795896  0.21068603     0.44500
H1764       H  0.67508894  0.55030780  0.12715609     0.44400
C1765       C  0.51267164  0.60400789  0.99511412    -0.04600
C1766       C  0.53534471  0.60077810  0.97979450    -0.32100
C1767       C  0.56139215  0.60134350  0.99228783     0.37200
C1768       C  0.56521186  0.60498916  0.02078523    -0.05000
C1769       C  0.54205805  0.60729812  0.03624864    -0.32000
C1770       C  0.51611827  0.60707480  0.02369184     0.37100
H1771       H  0.53314479  0.59810102  0.95787047     0.17400
O1772       O  0.58259341  0.59765028  0.97639047    -0.59500
H1773       H  0.54430810  0.60987941  0.05817597     0.17500
O1774       O  0.49423318  0.60961429  0.03962497    -0.59600
H1775       H  0.50419996  0.63244540  0.04430407     0.44500
H1776       H  0.59737611  0.61911062  0.96909547     0.44400
loop_ 
_geom_bond_atom_site_label_1 
_geom_bond_atom_site_label_2 
_geom_bond_distance 
_geom_bond_site_symmetry_2 
_ccdc_geom_bond_type 
O1            C4   1.269       .  A
O1           Cd6   2.474       .  S
C2           O11   1.266       .  A
C2            O7   1.268       .  A
C2          C424   1.481       .  S
O3            C9   1.272       .  A
O3           Cd6   2.528       .  S
C4           O12   1.266       .  A
C4          C436   1.485       .  S
C5           O10   1.263       .  A
C5            O8   1.270       .  A
C5          C397   1.491       .  S
Cd6          O13   2.426       .  S
Cd6          O12   2.449       .  S
Cd6          O11   2.447       .  S
Cd6           O7   2.474       .  S
Cd6          O10   2.463       .  S
Cd6           O8   2.523       .  S
C9           O13   1.262       .  A
C9          C409   1.489       .  S
O14          C17   1.269       .  A
O14        Cd463   2.479       .  S
C15          O24   1.267       .  A
C15          O20   1.267       .  A
C15         C421   1.476       .  S
O16          C22   1.269       .  A
O16         Cd19   2.519       .  S
C17         O469   1.264       .  A
C17         C388   1.483       .  S
C18          O23   1.271       .  A
C18          O21   1.263       .  A
C18         C364   1.491       .  S
Cd19         O26   2.455       .  S
Cd19         O25   2.431       .  S
Cd19         O24   2.467       .  S
Cd19         O20   2.462       .  S
Cd19         O23   2.504       .  S
Cd19         O21   2.480       .  S
Cd19        O458   2.478       .  S
C22          O26   1.262       .  A
C22         C373   1.491       .  S
O25         C461   1.264   1_545  A
O27          C30   1.266       .  A
O27        Cd920   2.471       .  S
C28          O37   1.268       .  A
C28          O33   1.267       .  A
C28         C337   1.484       .  S
O29          C35   1.271       .  A
O29         Cd32   2.528       .  S
C30         O926   1.265       .  A
C30         C349   1.484       .  S
C31          O36   1.271       .  A
C31          O34   1.264       .  A
C31         C325   1.494       .  S
Cd32         O39   2.450       .  S
Cd32         O38   2.452       .  S
Cd32         O37   2.444       .  S
Cd32         O33   2.465       .  S
Cd32         O36   2.523       .  S
Cd32         O34   2.468       .  S
Cd32        O915   2.471   1_455  S
C35          O39   1.262       .  A
C35         C376   1.490       .  S
O38         C918   1.265   1_455  A
O40          C43   1.268       .  A
O40         Cd45   2.473       .  S
C41          O50   1.264       .  A
C41          O46   1.269       .  A
C41         C313   1.488       .  S
O42          C48   1.269       .  A
O42         Cd45   2.515       .  S
C43          O51   1.266       .  A
C43         C340   1.483       .  S
C44          O49   1.268       .  A
C44          O47   1.263       .  A
C44         C301   1.488       .  S
Cd45         O52   2.460       .  S
Cd45         O51   2.447       .  S
Cd45         O50   2.439       .  S
Cd45         O46   2.496       .  S
Cd45         O49   2.507       .  S
Cd45         O47   2.451       .  S
C48          O52   1.263       .  A
C48         C289   1.490       .  S
O53          C56   1.269       .  A
O53         Cd58   2.452       .  S
C54          O63   1.267       .  A
C54          O59   1.268       .  A
C54         C280   1.485       .  S
O55          C61   1.271       .  A
O55         Cd58   2.497       .  S
C56          O64   1.266       .  A
C56        C1321   1.484       .  S
C57          O62   1.272       .  A
C57          O60   1.263       .  A
C57         C256   1.488       .  S
Cd58         O65   2.422       .  S
Cd58         O64   2.455       .  S
Cd58         O63   2.462       .  S
Cd58         O59   2.451       .  S
Cd58         O62   2.519       .  S
Cd58         O60   2.426       .  S
C61          O65   1.263       .  A
C61         C265   1.479       .  S
O66          C69   1.269       .  A
O66         Cd71   2.459       .  S
C67          O72   1.270       .  A
C67         O520   1.263       .  A
C67         C232   1.483       .  S
O68          C74   1.272       .  A
O68         Cd71   2.534       .  S
C69          O77   1.268       .  A
C69         C277   1.479       .  S
C70          O75   1.269       .  A
C70          O73   1.262       .  A
C70         C304   1.492       .  S
Cd71         O78   2.441       .  S
Cd71         O77   2.458       .  S
Cd71         O76   2.412       .  S
Cd71         O75   2.519       .  S
Cd71         O73   2.455       .  S
Cd71        O516   2.501   1_545  S
O72        Cd515   2.501       .  S
C74          O78   1.263       .  A
C74         C241   1.492       .  S
O76         C511   1.263   1_545  A
O79          C82   1.267       .  A
O79        Cd528   2.468       .  S
C80          O89   1.268       .  A
C80          O85   1.269       .  A
C80         C217   1.483       .  S
O81          C87   1.270       .  A
O81         Cd84   2.522       .  S
C82         O534   1.266       .  A
C82         C352   1.485   1_565  S
C83          O88   1.272       .  A
C83          O86   1.263       .  A
C83         C361   1.492       .  S
Cd84         O91   2.449       .  S
Cd84         O90   2.461       .  S
Cd84         O89   2.444       .  S
Cd84         O85   2.452       .  S
Cd84         O88   2.518       .  S
Cd84         O86   2.436       .  S
Cd84        O523   2.468       .  S
C87          O91   1.262       .  A
C87         C208   1.491       .  S
O90         C526   1.266       .  A
O92          C95   1.269       .  A
O92         Cd97   2.484       .  S
C93         O102   1.263       .  A
C93          O98   1.269       .  A
C93         C196   1.483       .  S
O94         C100   1.271       .  A
O94         Cd97   2.497       .  S
C95         O103   1.267       .  A
C95         C220   1.483       .  S
C96         O101   1.267       .  A
C96          O99   1.261       .  A
C96         C268   1.485       .  S
Cd97        O104   2.452       .  S
Cd97        O103   2.443       .  S
Cd97        O102   2.445       .  S
Cd97         O98   2.469       .  S
Cd97        O101   2.505       .  S
Cd97         O99   2.444       .  S
C100        O104   1.264       .  A
C100        C400   1.492       .  S
O105        C108   1.268       .  A
O105       Cd110   2.446       .  S
C106        O111   1.268       .  A
C106       O1003   1.264       .  A
C106        C193   1.482       .  S
O107        C113   1.272       .  A
O107       Cd110   2.526       .  S
C108        O116   1.269       .  A
C108        C181   1.484       .  S
C109        O114   1.270       .  A
C109        O112   1.263       .  A
C109        C412   1.485       .  S
Cd110       O117   2.439       .  S
Cd110       O116   2.472       .  S
Cd110       O115   2.442       .  S
Cd110       O114   2.500       .  S
Cd110       O112   2.456       .  S
Cd110       O999   2.469   1_455  S
O111       Cd998   2.469       .  S
C113        O117   1.262       .  A
C113        C253   1.489       .  S
O115        C994   1.264   1_455  A
O118        C121   1.268       .  A
O118       Cd123   2.468       .  S
C119        O124   1.269       .  A
C119        O572   1.265       .  A
C119        C316   1.488   1_565  S
O120        C126   1.272       .  A
O120       Cd123   2.533       .  S
C121        O129   1.268       .  A
C121        C184   1.491       .  S
C122        O127   1.271       .  A
C122        O125   1.263       .  A
C122        C169   1.485       .  S
Cd123       O130   2.453       .  S
Cd123       O129   2.488       .  S
Cd123       O128   2.455       .  S
Cd123       O127   2.521       .  S
Cd123       O125   2.445       .  S
Cd123       O568   2.484       .  S
O124       Cd567   2.483       .  S
C126        O130   1.263       .  A
C126        C244   1.496       .  S
O128        C563   1.265       .  A
O131        C134   1.269       .  A
O131       Cd136   2.464       .  S
C132        O141   1.262       .  A
C132        O137   1.269       .  A
C132        C229   1.482       .  S
O133        C139   1.270       .  A
O133       Cd136   2.502       .  S
C134        O142   1.269       .  A
C134        C157   1.488       .  S
C135        O140   1.268       .  A
C135        O138   1.264       .  A
C135        C172   1.491       .  S
Cd136       O143   2.469       .  S
Cd136       O142   2.463       .  S
Cd136       O141   2.436       .  S
Cd136       O137   2.473       .  S
Cd136       O140   2.497       .  S
Cd136       O138   2.467       .  S
C139        O143   1.263       .  A
C139        C292   1.491       .  S
O144        C147   1.268       .  A
O144       Cd149   2.476       .  S
C145        O154   1.265       .  A
C145        O150   1.268       .  A
C145       C1273   1.480       .  S
O146        C152   1.271       .  A
O146       Cd149   2.516       .  S
C147        O155   1.267       .  A
C147        C160   1.484       .  S
C148        O153   1.270       .  A
C148        O151   1.262       .  A
C148        C205   1.488       .  S
Cd149       O156   2.459       .  S
Cd149       O155   2.459       .  S
Cd149       O154   2.442       .  S
Cd149       O150   2.459       .  S
Cd149       O153   2.533       .  S
Cd149       O151   2.435       .  S
C152        O156   1.263       .  A
C152        C328   1.492       .  S
C157        C158   1.406       .  A
C157        C162   1.413       .  A
C158        C159   1.401       .  A
C158        H163   1.083       .  S
C159        C160   1.410       .  A
C159        O164   1.372       .  S
C160        C161   1.405       .  A
C161        C162   1.403       .  A
C161        H165   1.084       .  S
C162        O166   1.371       .  S
O164        H168   0.993       .  S
O166        H167   0.993       .  S
C169        C170   1.406   1_455  A
C169        C174   1.409       .  A
C170       C1059   1.403       .  A
C170        H175   1.084       .  S
C171        C172   1.411       .  A
C171       C1058   1.403       .  A
C171        O176   1.371       .  S
C172        C173   1.409       .  A
C173       C1062   1.405       .  A
C173        H177   1.083       .  S
C174       C1061   1.405   1_455  A
C174        O178   1.372       .  S
O176        H180   0.993       .  S
O178        H179   0.991       .  S
C181        C182   1.404       .  A
C181        C186   1.410       .  A
C182        C183   1.400       .  A
C182        H187   1.084       .  S
C183        C184   1.413       .  A
C183        O188   1.371       .  S
C184        C185   1.408       .  A
C185        C186   1.405       .  A
C185        H189   1.083       .  S
C186        O190   1.372       .  S
O188        H192   0.992       .  S
O190        H191   0.991       .  S
C193        C194   1.404       .  A
C193        C198   1.412   1_556  A
C194        C195   1.400       .  A
C194        H199   1.084       .  S
C195        C196   1.413   1_556  A
C195        O200   1.372       .  S
C196        C197   1.403       .  A
C197        C198   1.399       .  A
C197        H201   1.083       .  S
C198        O202   1.372       .  S
O200        H204   0.997       .  S
O202        H203   0.991       .  S
C205        C206   1.407       .  A
C205        C210   1.409       .  A
C206        C207   1.402       .  A
C206        H211   1.084       .  S
C207        C208   1.409       .  A
C207        O212   1.371       .  S
C208        C209   1.410       .  A
C209        C210   1.405       .  A
C209        H213   1.083       .  S
C210        O214   1.371       .  S
O212        H216   0.990       .  S
O214        H215   0.985       .  S
C217        C218   1.406       .  A
C217        C222   1.411       .  A
C218        C219   1.402       .  A
C218        H223   1.083       .  S
C219        C220   1.411       .  A
C219        O224   1.371       .  S
C220        C221   1.404       .  A
C221        C222   1.399       .  A
C221        H225   1.083       .  S
C222        O226   1.372       .  S
O224        H228   0.993       .  S
O226        H227   0.991       .  S
C229        C230   1.401       .  A
C229        C234   1.415       .  A
C230        C231   1.396       .  A
C230        H235   1.083       .  S
C231        C232   1.413       .  A
C231        O236   1.372       .  S
C232        C233   1.404       .  A
C233        C234   1.402       .  A
C233        H237   1.083       .  S
C234        O238   1.372       .  S
O236        H240   0.991       .  S
O238        H239   0.992       .  S
C241        C242   1.403       .  A
C241        C690   1.414   1_545  A
C242        C243   1.407       .  A
C242        H247   1.083       .  S
C243        C688   1.417   1_545  A
C243        O248   1.372       .  S
C244        C245   1.404       .  A
C244        C687   1.417       .  A
C245        C246   1.405       .  A
C245        H249   1.083       .  S
C246        C685   1.414       .  A
C246        O250   1.372       .  S
O248        H252   0.991       .  S
O250        H251   0.992       .  S
C253        C258   1.407       .  A
C253       C1142   1.410   1_455  A
C254        C255   1.404       .  A
C254       C1141   1.410       .  A
C254        H259   1.084       .  S
C255        C256   1.409       .  A
C255        O260   1.371       .  S
C256       C1145   1.409       .  A
C257        C258   1.402       .  A
C257       C1144   1.409   1_455  A
C257        H261   1.083       .  S
C258        O262   1.371       .  S
O260        H264   0.995       .  S
O262        H263   0.994       .  S
C265        C266   1.406   1_545  A
C265        C270   1.407   1_556  A
C266        C711   1.401       .  A
C266        H271   1.084       .  S
C267        C268   1.410   1_556  A
C267        C710   1.401       .  A
C267        O272   1.372       .  S
C268        C269   1.408       .  A
C269        C714   1.401       .  A
C269        H273   1.084       .  S
C270        C713   1.401   1_545  A
C270        O274   1.371       .  S
O272        H276   0.980       .  S
O274        H275   0.996       .  S
C277        C278   1.403       .  A
C277        C282   1.408       .  A
C278        C279   1.402       .  A
C278        H283   1.084       .  S
C279        C280   1.413       .  A
C279        O284   1.371       .  S
C280        C281   1.406       .  A
C281        C282   1.399       .  A
C281        H285   1.083       .  S
C282        O286   1.371       .  S
O284        H288   0.993       .  S
O286        H287   0.993       .  S
C289        C290   1.405       .  A
C289        C294   1.413       .  A
C290        C291   1.405       .  A
C290        H295   1.083       .  S
C291        C292   1.416       .  A
C291        O296   1.372       .  S
C292        C293   1.403       .  A
C293        C294   1.402       .  A
C293        H297   1.083       .  S
C294        O298   1.371       .  S
O296        H300   0.992       .  S
O298        H299   0.992       .  S
C301        C306   1.409       .  A
C301       C1190   1.408   1_455  A
C302        C303   1.404       .  A
C302       C1189   1.408       .  A
C302        H307   1.084       .  S
C303        C304   1.411       .  A
C303        O308   1.371       .  S
C304        C305   1.409       .  A
C305       C1194   1.403       .  A
C305        H309   1.083       .  S
C306       C1193   1.402   1_455  A
C306        O310   1.371       .  S
O308        H312   0.992       .  S
O310        H311   0.989       .  S
C313        C314   1.405       .  A
C313        C318   1.413       .  A
C314        C315   1.403       .  A
C314        H319   1.083       .  S
C315        C316   1.414       .  A
C315        O764   1.372   1_545  S
C316        C317   1.403       .  A
C317        C318   1.401       .  A
C317        H321   1.083       .  S
C318        O322   1.372       .  S
O320        C759   1.372       .  S
O320        H768   0.992       .  S
O322        H323   0.990       .  S
H324        O764   0.992       .  S
C325        C326   1.404       .  A
C325       C1218   1.415   1_455  A
C326        C327   1.406       .  A
C326        H331   1.083       .  S
C327       C1216   1.415   1_455  A
C327        O332   1.372       .  S
C328        C329   1.403       .  A
C328       C1215   1.415       .  A
C329        C330   1.405       .  A
C329        H333   1.083       .  S
C330       C1213   1.415       .  A
C330        O334   1.372       .  S
O332        H336   0.992       .  S
O334        H335   0.992       .  S
C337        C338   1.404       .  A
C337        C342   1.413       .  A
C338        C339   1.398       .  A
C338        H343   1.083       .  S
C339        C340   1.410       .  A
C339        O344   1.371       .  S
C340        C341   1.405       .  A
C341        C342   1.402       .  A
C341        H345   1.083       .  S
C342        O346   1.372       .  S
O344        H348   0.993       .  S
O346        H347   0.988       .  S
C349        C350   1.406       .  A
C349        C354   1.411       .  A
C350        C351   1.400       .  A
C350        H355   1.083       .  S
C351        C352   1.410       .  A
C351        O356   1.371       .  S
C352        C353   1.406       .  A
C353        C354   1.401       .  A
C353        H357   1.083       .  S
C354        O358   1.372       .  S
O356        H360   0.992       .  S
O358        H359   0.991       .  S
C361        C362   1.405       .  A
C361        C810   1.416       .  A
C362        C363   1.407       .  A
C362        H367   1.083       .  S
C363        C808   1.415       .  A
C363        O368   1.371       .  S
C364        C365   1.402       .  A
C364        C807   1.415   1_545  A
C365        C366   1.401       .  A
C365        H369   1.083       .  S
C366        C805   1.416   1_545  A
C366        O370   1.372       .  S
O368        H372   0.993       .  S
O370        H371   0.992       .  S
C373        C374   1.409       .  A
C373        C378   1.410       .  A
C374        C375   1.404       .  A
C374        H379   1.083       .  S
C375        C376   1.409       .  A
C375        O380   1.371       .  S
C376        C377   1.408       .  A
C377        C378   1.404       .  A
C377        H381   1.084       .  S
C378        O382   1.371       .  S
O380        H384   0.988       .  S
O382        H383   0.987       .  S
C385       C1033   1.481   1_455  S
C385        C386   1.403       .  A
C385        C390   1.412       .  A
C386        C387   1.398       .  A
C386        H391   1.084       .  S
C387        C388   1.413       .  A
C387        O392   1.372       .  S
C388        C389   1.404       .  A
C389        C390   1.401       .  A
C389        H393   1.083       .  S
C390        O394   1.372   1_455  S
O392        H396   0.992       .  S
O394        H395   0.992   1_655  S
C397        C398   1.404       .  A
C397        C402   1.413       .  A
C398        C399   1.406       .  A
C398        H403   1.083       .  S
C399        C400   1.416       .  A
C399        O404   1.372       .  S
C400        C401   1.404       .  A
C401        C402   1.402       .  A
C401        H405   1.083       .  S
C402        O406   1.371       .  S
O404        H408   0.992       .  S
O406        H407   0.991       .  S
C409        C410   1.405   1_554  A
C409        C414   1.414   1_545  A
C410        C855   1.406   1_545  A
C410        H415   1.083       .  S
C411        C412   1.413       .  A
C411        C854   1.406       .  A
C411        O416   1.371       .  S
C412        C413   1.401   1_556  A
C413        C858   1.401       .  A
C413        H417   1.084       .  S
C414        C857   1.401       .  A
C414        O418   1.372       .  S
O416        H864   0.991       .  S
O418        H863   0.995       .  S
H419        O862   0.995       .  S
H420        O860   0.991       .  S
C421        C422   1.401       .  A
C421        C426   1.408       .  A
C422        C423   1.401       .  A
C422        H427   1.084       .  S
C423        C424   1.413       .  A
C423        O428   1.372       .  S
C424        C425   1.404       .  A
C425        C426   1.401       .  A
C425        H429   1.083       .  S
C426        O430   1.372       .  S
O428        H432   0.994       .  S
O430        H431   0.992       .  S
C433        C944   1.484   1_455  S
C433        C434   1.404       .  A
C433        C438   1.413   1_556  A
C434        C435   1.399       .  A
C434        H439   1.083       .  S
C435        C436   1.412   1_556  A
C435        O440   1.371       .  S
C436        C437   1.405       .  A
C437        C438   1.402       .  A
C437        H441   1.083       .  S
C438        O442   1.372   1_455  S
O440        H444   0.993       .  S
O442        H443   0.992   1_655  S
O445        C448   1.269       .  A
O445       Cd450   2.476       .  S
C446        O455   1.265       .  A
C446        O451   1.268       .  A
C446        C868   1.481       .  S
O447        C453   1.271       .  A
O447       Cd450   2.530       .  S
C448        O456   1.266       .  A
C448        C880   1.485       .  S
C449        O454   1.263       .  A
C449        O452   1.270       .  A
C449        C841   1.491       .  S
Cd450       O457   2.425       .  S
Cd450       O456   2.450       .  S
Cd450       O455   2.448       .  S
Cd450       O451   2.474       .  S
Cd450       O454   2.463       .  S
Cd450       O452   2.522       .  S
C453        O457   1.262       .  A
C453        C853   1.489       .  S
O458        C461   1.269   1_545  A
C459        O468   1.267       .  A
C459        O464   1.267       .  A
C459        C865   1.476       .  S
O460        C466   1.269       .  A
O460       Cd463   2.520       .  S
C461        C832   1.483       .  S
C462        O467   1.271       .  A
C462        O465   1.263       .  A
C462        C808   1.491       .  S
Cd463       O470   2.454       .  S
Cd463       O469   2.432       .  S
Cd463       O468   2.467       .  S
Cd463       O464   2.462       .  S
Cd463       O467   2.505       .  S
Cd463       O465   2.479       .  S
C466        O470   1.262       .  A
C466        C817   1.491       .  S
O471        C474   1.266       .  A
O471      Cd1364   2.471       .  S
C472        O481   1.268       .  A
C472        O477   1.267       .  A
C472        C781   1.484       .  S
O473        C479   1.271       .  A
O473       Cd476   2.526       .  S
C474       O1370   1.265       .  A
C474        C793   1.485       .  S
C475        O480   1.271       .  A
C475        O478   1.264       .  A
C475        C769   1.494       .  S
Cd476      O1359   2.471   1_455  S
Cd476       O483   2.453       .  S
Cd476       O482   2.453       .  S
Cd476       O481   2.444       .  S
Cd476       O477   2.466       .  S
Cd476       O480   2.523       .  S
Cd476       O478   2.468       .  S
C479        O483   1.262       .  A
C479        C820   1.491       .  S
O482       C1362   1.265   1_455  A
O484        C487   1.268       .  A
O484       Cd489   2.472       .  S
C485        O494   1.264       .  A
C485        O490   1.269       .  A
C485        C757   1.488       .  S
O486        C492   1.269       .  A
O486       Cd489   2.515       .  S
C487        O495   1.266       .  A
C487        C784   1.483       .  S
C488        O493   1.268       .  A
C488        O491   1.263       .  A
C488        C745   1.488       .  S
Cd489       O496   2.459       .  S
Cd489       O495   2.449       .  S
Cd489       O494   2.440       .  S
Cd489       O490   2.498       .  S
Cd489       O493   2.507       .  S
Cd489       O491   2.451       .  S
C492        O496   1.263       .  A
C492        C733   1.490       .  S
O497        C500   1.269       .  A
O497       Cd502   2.450       .  S
C498        O507   1.267       .  A
C498        O503   1.268       .  A
C498        C724   1.485       .  S
O499        C505   1.271       .  A
O499       Cd502   2.496       .  S
C500        O508   1.266       .  A
C500       C1765   1.484       .  S
C501        O506   1.272       .  A
C501        O504   1.263       .  A
C501        C700   1.488       .  S
Cd502       O509   2.423       .  S
Cd502       O508   2.457       .  S
Cd502       O507   2.462       .  S
Cd502       O503   2.450       .  S
Cd502       O506   2.518       .  S
Cd502       O504   2.426       .  S
C505        O509   1.263       .  A
C505        C709   1.479       .  S
O510        C513   1.269       .  A
O510       Cd515   2.459       .  S
C511        O516   1.270       .  A
C511        C676   1.483       .  S
O512        C518   1.272       .  A
O512       Cd515   2.535       .  S
C513        O521   1.268       .  A
C513        C721   1.479       .  S
C514        O519   1.269       .  A
C514        O517   1.262       .  A
C514        C748   1.492       .  S
Cd515       O522   2.442       .  S
Cd515       O521   2.458       .  S
Cd515       O520   2.411       .  S
Cd515       O519   2.520       .  S
Cd515       O517   2.456       .  S
C518        O522   1.263       .  A
C518        C685   1.492       .  S
O523        C526   1.267       .  A
C524        O533   1.268       .  A
C524        O529   1.269       .  A
C524        C661   1.483       .  S
O525        C531   1.270       .  A
O525       Cd528   2.520       .  S
C526        C796   1.485       .  S
C527        O532   1.272       .  A
C527        O530   1.263       .  A
C527        C805   1.492       .  S
Cd528       O535   2.448       .  S
Cd528       O534   2.462       .  S
Cd528       O533   2.445       .  S
Cd528       O529   2.451       .  S
Cd528       O532   2.517       .  S
Cd528       O530   2.435       .  S
C531        O535   1.262       .  A
C531        C652   1.490       .  S
O536        C539   1.269       .  A
O536       Cd541   2.483       .  S
C537        O546   1.263       .  A
C537        O542   1.269       .  A
C537        C640   1.483       .  S
O538        C544   1.271       .  A
O538       Cd541   2.499       .  S
C539        O547   1.267       .  A
C539        C664   1.483       .  S
C540        O545   1.268       .  A
C540        O543   1.261       .  A
C540        C712   1.485       .  S
Cd541       O548   2.450       .  S
Cd541       O547   2.444       .  S
Cd541       O546   2.444       .  S
Cd541       O542   2.471       .  S
Cd541       O545   2.504       .  S
Cd541       O543   2.445       .  S
C544        O548   1.264       .  A
C544        C844   1.492       .  S
O549        C552   1.268       .  A
O549       Cd554   2.448       .  S
C550       O1447   1.264       .  A
C550        O555   1.268       .  A
C550        C637   1.483       .  S
O551        C557   1.272       .  A
O551       Cd554   2.527       .  S
C552        O560   1.269       .  A
C552        C625   1.484       .  S
C553        O558   1.270       .  A
C553        O556   1.263       .  A
C553        C856   1.485       .  S
Cd554       O561   2.438       .  S
Cd554       O560   2.473       .  S
Cd554       O559   2.442       .  S
Cd554      O1443   2.470   1_455  S
Cd554       O558   2.499       .  S
Cd554       O556   2.456       .  S
O555      Cd1442   2.471       .  S
C557        O561   1.262       .  A
C557        C697   1.489       .  S
O559       C1438   1.264   1_455  A
O562        C565   1.268       .  A
O562       Cd567   2.467       .  S
C563        O568   1.269       .  A
C563        C760   1.488       .  S
O564        C570   1.272       .  A
O564       Cd567   2.531       .  S
C565        O573   1.268       .  A
C565        C628   1.491       .  S
C566        O571   1.271       .  A
C566        O569   1.263       .  A
C566        C613   1.485       .  S
Cd567       O574   2.452       .  S
Cd567       O573   2.488       .  S
Cd567       O572   2.454       .  S
Cd567       O571   2.520       .  S
Cd567       O569   2.445       .  S
C570        O574   1.263       .  A
C570        C688   1.496       .  S
O575        C578   1.269       .  A
O575       Cd580   2.463       .  S
C576        O585   1.263       .  A
C576        O581   1.269       .  A
C576        C673   1.482       .  S
O577        C583   1.270       .  A
O577       Cd580   2.502       .  S
C578        O586   1.269       .  A
C578        C601   1.488       .  S
C579        O584   1.269       .  A
C579        O582   1.264       .  A
C579        C616   1.491       .  S
Cd580       O587   2.469       .  S
Cd580       O586   2.461       .  S
Cd580       O585   2.436       .  S
Cd580       O581   2.472       .  S
Cd580       O584   2.497       .  S
Cd580       O582   2.466       .  S
C583        O587   1.263       .  A
C583        C736   1.491       .  S
O588        C591   1.268       .  A
O588       Cd593   2.476       .  S
C589        O598   1.265       .  A
C589        O594   1.268       .  A
C589       C1717   1.480       .  S
O590        C596   1.271       .  A
O590       Cd593   2.516       .  S
C591        O599   1.267       .  A
C591        C604   1.484       .  S
C592        O597   1.270       .  A
C592        O595   1.262       .  A
C592        C649   1.488       .  S
Cd593       O600   2.459       .  S
Cd593       O599   2.458       .  S
Cd593       O598   2.442       .  S
Cd593       O594   2.459       .  S
Cd593       O597   2.532       .  S
Cd593       O595   2.434       .  S
C596        O600   1.263       .  A
C596        C772   1.492       .  S
C601        C602   1.406       .  A
C601        C606   1.413       .  A
C602        C603   1.401       .  A
C602        H607   1.083       .  S
C603        C604   1.410       .  A
C603        O608   1.372       .  S
C604        C605   1.405       .  A
C605        C606   1.403       .  A
C605        H609   1.084       .  S
C606        O610   1.371       .  S
O608        H612   0.994       .  S
O610        H611   0.993       .  S
C613        C614   1.406   1_455  A
C613        C618   1.409       .  A
C614       C1503   1.403       .  A
C614        H619   1.084       .  S
C615       C1502   1.403       .  A
C615        C616   1.411       .  A
C615        O620   1.371       .  S
C616        C617   1.409       .  A
C617       C1506   1.405       .  A
C617        H621   1.083       .  S
C618       C1505   1.405   1_455  A
C618        O622   1.372       .  S
O620        H624   0.992       .  S
O622        H623   0.991       .  S
C625        C626   1.404       .  A
C625        C630   1.410       .  A
C626        C627   1.400       .  A
C626        H631   1.084       .  S
C627        C628   1.413       .  A
C627        O632   1.371       .  S
C628        C629   1.408       .  A
C629        C630   1.405       .  A
C629        H633   1.083       .  S
C630        O634   1.372       .  S
O632        H636   0.992       .  S
O634        H635   0.991       .  S
C637        C638   1.404       .  A
C637        C642   1.413   1_556  A
C638        C639   1.400       .  A
C638        H643   1.083       .  S
C639        C640   1.413   1_556  A
C639        O644   1.372       .  S
C640        C641   1.403       .  A
C641        C642   1.399       .  A
C641        H645   1.083       .  S
C642        O646   1.372       .  S
O644        H648   0.997       .  S
O646        H647   0.991       .  S
C649        C650   1.407       .  A
C649        C654   1.410       .  A
C650        C651   1.402       .  A
C650        H655   1.084       .  S
C651        C652   1.409       .  A
C651        O656   1.371       .  S
C652        C653   1.410       .  A
C653        C654   1.405       .  A
C653        H657   1.083       .  S
C654        O658   1.371       .  S
O656        H660   0.991       .  S
O658        H659   0.985       .  S
C661        C662   1.406       .  A
C661        C666   1.411       .  A
C662        C663   1.402       .  A
C662        H667   1.083       .  S
C663        C664   1.411       .  A
C663        O668   1.371       .  S
C664        C665   1.404       .  A
C665        C666   1.399       .  A
C665        H669   1.084       .  S
C666        O670   1.372       .  S
O668        H672   0.993       .  S
O670        H671   0.991       .  S
C673        C674   1.401       .  A
C673        C678   1.415       .  A
C674        C675   1.396       .  A
C674        H679   1.083       .  S
C675        C676   1.413       .  A
C675        O680   1.372       .  S
C676        C677   1.404       .  A
C677        C678   1.402       .  A
C677        H681   1.083       .  S
C678        O682   1.372       .  S
O680        H684   0.991   1_565  S
O682        H683   0.992       .  S
C685        C686   1.403       .  A
C686        C687   1.407       .  A
C686        H691   1.083       .  S
C687        O692   1.372       .  S
C688        C689   1.404       .  A
C689        C690   1.405       .  A
C689        H693   1.083       .  S
C690        O694   1.372       .  S
O692        H696   0.991       .  S
O694        H695   0.992       .  S
C697       C1586   1.410   1_455  A
C697        C702   1.408       .  A
C698       C1585   1.410       .  A
C698        C699   1.404       .  A
C698        H703   1.084       .  S
C699        C700   1.408       .  A
C699        O704   1.371       .  S
C700       C1589   1.409       .  A
C701       C1588   1.409   1_455  A
C701        C702   1.403       .  A
C701        H705   1.083       .  S
C702        O706   1.371       .  S
O704        H708   0.995       .  S
O706        H707   0.994       .  S
C709        C710   1.406       .  A
C709        C714   1.406   1_556  A
C710        H715   1.084       .  S
C711        C712   1.410   1_556  A
C711        O716   1.372       .  S
C712        C713   1.408       .  A
C713        H717   1.084       .  S
C714        O718   1.371       .  S
O716        H720   0.980       .  S
O718        H719   0.996       .  S
C721        C722   1.403       .  A
C721        C726   1.408       .  A
C722        C723   1.402       .  A
C722        H727   1.084       .  S
C723        C724   1.413       .  A
C723        O728   1.372       .  S
C724        C725   1.406       .  A
C725        C726   1.399       .  A
C725        H729   1.083       .  S
C726        O730   1.371       .  S
O728        H732   0.993       .  S
O730        H731   0.993       .  S
C733        C734   1.405       .  A
C733        C738   1.413       .  A
C734        C735   1.405       .  A
C734        H739   1.083       .  S
C735        C736   1.416       .  A
C735        O740   1.372       .  S
C736        C737   1.403       .  A
C737        C738   1.402       .  A
C737        H741   1.083       .  S
C738        O742   1.371       .  S
O740        H744   0.992       .  S
O742        H743   0.992       .  S
C745       C1634   1.408   1_455  A
C745        C750   1.409       .  A
C746       C1633   1.408       .  A
C746        C747   1.404       .  A
C746        H751   1.084       .  S
C747        C748   1.411       .  A
C747        O752   1.371       .  S
C748        C749   1.409       .  A
C749       C1638   1.403       .  A
C749        H753   1.083       .  S
C750       C1637   1.402   1_455  A
C750        O754   1.371       .  S
O752        H756   0.992       .  S
O754        H755   0.989       .  S
C757        C758   1.405       .  A
C757        C762   1.413       .  A
C758        C759   1.403       .  A
C758        H763   1.083       .  S
C759        C760   1.414       .  A
C760        C761   1.403       .  A
C761        C762   1.401       .  A
C761        H765   1.083       .  S
C762        O766   1.372       .  S
O766        H767   0.990       .  S
C769        C770   1.404       .  A
C769       C1662   1.415   1_455  A
C770        C771   1.406       .  A
C770        H775   1.083       .  S
C771       C1660   1.415   1_455  A
C771        O776   1.372       .  S
C772       C1659   1.415       .  A
C772        C773   1.403       .  A
C773        C774   1.405       .  A
C773        H777   1.083       .  S
C774       C1657   1.415       .  A
C774        O778   1.372       .  S
O776        H780   0.992       .  S
O778        H779   0.992       .  S
C781        C782   1.404       .  A
C781        C786   1.413       .  A
C782        C783   1.398       .  A
C782        H787   1.083       .  S
C783        C784   1.410       .  A
C783        O788   1.371       .  S
C784        C785   1.405       .  A
C785        C786   1.402       .  A
C785        H789   1.083       .  S
C786        O790   1.372       .  S
O788        H792   0.993       .  S
O790        H791   0.989       .  S
C793        C794   1.406       .  A
C793        C798   1.411       .  A
C794        C795   1.400       .  A
C794        H799   1.083       .  S
C795        C796   1.410       .  A
C795        O800   1.371       .  S
C796        C797   1.406       .  A
C797        C798   1.401       .  A
C797        H801   1.083       .  S
C798        O802   1.372       .  S
O800        H804   0.992       .  S
O802        H803   0.991       .  S
C805        C806   1.405       .  A
C806        C807   1.407       .  A
C806        H811   1.083       .  S
C807        O812   1.372       .  S
C808        C809   1.402       .  A
C809        C810   1.402       .  A
C809        H813   1.083       .  S
C810        O814   1.372       .  S
O812        H816   0.993       .  S
O814        H815   0.992       .  S
C817        C818   1.409       .  A
C817        C822   1.410       .  A
C818        C819   1.404       .  A
C818        H823   1.083       .  S
C819        C820   1.409       .  A
C819        O824   1.371       .  S
C820        C821   1.409       .  A
C821        C822   1.404       .  A
C821        H825   1.084       .  S
C822        O826   1.371       .  S
O824        H828   0.988       .  S
O826        H827   0.987       .  S
C829       C1477   1.480   1_455  S
C829        C830   1.403       .  A
C829        C834   1.412       .  A
C830        C831   1.398       .  A
C830        H835   1.084       .  S
C831        C832   1.413       .  A
C831        O836   1.372       .  S
C832        C833   1.404       .  A
C833        C834   1.400       .  A
C833        H837   1.083       .  S
C834        O838   1.372   1_455  S
O836        H840   0.992       .  S
O838        H839   0.992   1_655  S
C841        C842   1.404       .  A
C841        C846   1.413       .  A
C842        C843   1.405       .  A
C842        H847   1.083       .  S
C843        C844   1.416       .  A
C843        O848   1.372       .  S
C844        C845   1.404       .  A
C845        C846   1.403       .  A
C845        H849   1.083       .  S
C846        O850   1.371       .  S
O848        H852   0.992       .  S
O850        H851   0.991       .  S
C853        C854   1.405   1_554  A
C853        C858   1.414       .  A
C854        H859   1.083       .  S
C855        C856   1.413       .  A
C855        O860   1.371       .  S
C856        C857   1.402   1_556  A
C857        H861   1.084       .  S
C858        O862   1.372       .  S
C865        C866   1.401       .  A
C865        C870   1.408       .  A
C866        C867   1.401       .  A
C866        H871   1.084       .  S
C867        C868   1.413       .  A
C867        O872   1.372       .  S
C868        C869   1.404       .  A
C869        C870   1.401       .  A
C869        H873   1.083       .  S
C870        O874   1.372       .  S
O872        H876   0.994       .  S
O874        H875   0.992       .  S
C877       C1388   1.484   1_455  S
C877        C878   1.404       .  A
C877        C882   1.413   1_556  A
C878        C879   1.399       .  A
C878        H883   1.083       .  S
C879        C880   1.411   1_556  A
C879        O884   1.371       .  S
C880        C881   1.405       .  A
C881        C882   1.403       .  A
C881        H885   1.083       .  S
C882        O886   1.372   1_455  S
O884        H888   0.992       .  S
O886        H887   0.992   1_655  S
O889        C892   1.269       .  A
O889       Cd894   2.473       .  S
C890        O899   1.266       .  A
C890        O895   1.268       .  A
C890       C1312   1.481       .  S
O891        C897   1.272       .  A
O891       Cd894   2.528       .  S
C892        O900   1.266       .  A
C892       C1324   1.485       .  S
C893        O898   1.263       .  A
C893        O896   1.270       .  A
C893       C1285   1.491       .  S
Cd894       O901   2.427       .  S
Cd894       O900   2.449       .  S
Cd894       O899   2.447       .  S
Cd894       O895   2.475       .  S
Cd894       O898   2.463       .  S
Cd894       O896   2.524       .  S
C897        O901   1.262       .  A
C897       C1297   1.489       .  S
O902        C905   1.269       .  A
O902      Cd1351   2.478       .  S
C903        O912   1.267       .  A
C903        O908   1.267       .  A
C903       C1309   1.476       .  S
O904        C910   1.269       .  A
O904       Cd907   2.518       .  S
C905       O1357   1.264       .  A
C905       C1276   1.483       .  S
C906        O911   1.271       .  A
C906        O909   1.263       .  A
C906       C1252   1.491       .  S
Cd907      O1346   2.478   1_545  S
Cd907       O914   2.455       .  S
Cd907       O913   2.431       .  S
Cd907       O912   2.466       .  S
Cd907       O908   2.461       .  S
Cd907       O911   2.504       .  S
Cd907       O909   2.479       .  S
C910        O914   1.262       .  A
C910       C1261   1.491       .  S
O913       C1349   1.264   1_545  A
O915        C918   1.266       .  A
C916        O925   1.268       .  A
C916        O921   1.267       .  A
C916       C1225   1.484       .  S
O917        C923   1.271       .  A
O917       Cd920   2.529       .  S
C918       C1237   1.484       .  S
C919        O924   1.271       .  A
C919        O922   1.264       .  A
C919       C1213   1.494       .  S
Cd920       O927   2.450       .  S
Cd920       O926   2.453       .  S
Cd920       O925   2.444       .  S
Cd920       O921   2.465       .  S
Cd920       O924   2.523       .  S
Cd920       O922   2.468       .  S
C923        O927   1.262       .  A
C923       C1264   1.490       .  S
O928        C931   1.268       .  A
O928       Cd933   2.473       .  S
C929        O938   1.264       .  A
C929        O934   1.269       .  A
C929       C1201   1.488       .  S
O930        C936   1.269       .  A
O930       Cd933   2.515       .  S
C931        O939   1.266       .  A
C931       C1228   1.483       .  S
C932        O937   1.268       .  A
C932        O935   1.263       .  A
C932       C1189   1.488       .  S
Cd933       O940   2.461       .  S
Cd933       O939   2.448       .  S
Cd933       O938   2.439       .  S
Cd933       O934   2.496       .  S
Cd933       O937   2.507       .  S
Cd933       O935   2.452       .  S
C936        O940   1.263       .  A
C936       C1177   1.490       .  S
O941        C944   1.269       .  A
O941       Cd946   2.452       .  S
C942        O951   1.267       .  A
C942        O947   1.268       .  A
C942       C1168   1.485       .  S
O943        C949   1.271       .  A
O943       Cd946   2.496       .  S
C944        O952   1.266       .  A
C945        O950   1.272       .  A
C945        O948   1.263       .  A
C945       C1144   1.489       .  S
Cd946       O953   2.423       .  S
Cd946       O952   2.457       .  S
Cd946       O951   2.461       .  S
Cd946       O947   2.452       .  S
Cd946       O950   2.520       .  S
Cd946       O948   2.426       .  S
C949        O953   1.263       .  A
C949       C1153   1.479       .  S
O954        C957   1.269       .  A
O954       Cd959   2.457       .  S
C955       O1408   1.263       .  A
C955        O960   1.270       .  A
C955       C1120   1.483       .  S
O956        C962   1.272       .  A
O956       Cd959   2.534       .  S
C957        O965   1.268       .  A
C957       C1165   1.478       .  S
C958        O963   1.269       .  A
C958        O961   1.262       .  A
C958       C1192   1.492       .  S
Cd959       O966   2.441       .  S
Cd959       O965   2.458       .  S
Cd959       O964   2.411       .  S
Cd959      O1404   2.501   1_545  S
Cd959       O963   2.519       .  S
Cd959       O961   2.454       .  S
O960      Cd1403   2.501       .  S
C962        O966   1.263       .  A
C962       C1129   1.492       .  S
O964       C1399   1.263   1_545  A
O967        C970   1.267       .  A
O967      Cd1416   2.467       .  S
C968        O977   1.268       .  A
C968        O973   1.269       .  A
C968       C1105   1.484       .  S
O969        C975   1.270       .  A
O969       Cd972   2.521       .  S
C970       O1422   1.266       .  A
C970       C1240   1.485   1_565  S
C971        O976   1.272       .  A
C971        O974   1.263       .  A
C971       C1249   1.492       .  S
Cd972      O1411   2.467       .  S
Cd972       O979   2.449       .  S
Cd972       O978   2.461       .  S
Cd972       O977   2.445       .  S
Cd972       O973   2.452       .  S
Cd972       O976   2.517       .  S
Cd972       O974   2.434       .  S
C975        O979   1.262       .  A
C975       C1096   1.491       .  S
O978       C1414   1.266       .  A
O980        C983   1.269       .  A
O980       Cd985   2.485       .  S
C981        O990   1.263       .  A
C981        O986   1.269       .  A
C981       C1084   1.483       .  S
O982        C988   1.271       .  A
O982       Cd985   2.498       .  S
C983        O991   1.267       .  A
C983       C1108   1.483       .  S
C984        O989   1.267       .  A
C984        O987   1.261       .  A
C984       C1156   1.485       .  S
Cd985       O992   2.453       .  S
Cd985       O991   2.444       .  S
Cd985       O990   2.445       .  S
Cd985       O986   2.469       .  S
Cd985       O989   2.505       .  S
Cd985       O987   2.445       .  S
C988        O992   1.264       .  A
C988       C1288   1.492       .  S
O993        C996   1.268       .  A
O993       Cd998   2.445       .  S
C994        O999   1.268       .  A
C994       C1081   1.482       .  S
O995       C1001   1.272       .  A
O995       Cd998   2.526       .  S
C996       O1004   1.269       .  A
C996       C1069   1.484       .  S
C997       O1002   1.270       .  A
C997       O1000   1.263       .  A
C997       C1300   1.485       .  S
Cd998      O1005   2.439       .  S
Cd998      O1004   2.473       .  S
Cd998      O1003   2.442       .  S
Cd998      O1002   2.499       .  S
Cd998      O1000   2.456       .  S
C1001      O1005   1.262       .  A
C1001      C1141   1.489       .  S
O1006      C1009   1.268       .  A
O1006     Cd1011   2.468       .  S
C1007      O1460   1.265       .  A
C1007      O1012   1.269       .  A
C1007      C1204   1.488   1_565  S
O1008      C1014   1.272       .  A
O1008     Cd1011   2.534       .  S
C1009      O1017   1.268       .  A
C1009      C1072   1.491       .  S
C1010      O1015   1.271       .  A
C1010      O1013   1.263       .  A
C1010      C1057   1.485       .  S
Cd1011     O1018   2.454       .  S
Cd1011     O1017   2.489       .  S
Cd1011     O1016   2.456       .  S
Cd1011     O1456   2.485       .  S
Cd1011     O1015   2.521       .  S
Cd1011     O1013   2.445       .  S
O1012     Cd1455   2.484       .  S
C1014      O1018   1.263       .  A
C1014      C1132   1.497       .  S
O1016      C1451   1.265       .  A
O1019      C1022   1.269       .  A
O1019     Cd1024   2.464       .  S
C1020      O1029   1.262       .  A
C1020      O1025   1.269       .  A
C1020      C1117   1.483       .  S
O1021      C1027   1.270       .  A
O1021     Cd1024   2.503       .  S
C1022      O1030   1.269       .  A
C1022      C1045   1.489       .  S
C1023      O1028   1.269       .  A
C1023      O1026   1.264       .  A
C1023      C1060   1.491       .  S
Cd1024     O1031   2.469       .  S
Cd1024     O1030   2.464       .  S
Cd1024     O1029   2.437       .  S
Cd1024     O1025   2.473       .  S
Cd1024     O1028   2.497       .  S
Cd1024     O1026   2.467       .  S
C1027      O1031   1.263       .  A
C1027      C1180   1.491       .  S
O1032      C1035   1.268       .  A
O1032     Cd1037   2.476       .  S
C1033      O1042   1.265       .  A
C1033      O1038   1.268       .  A
O1034      C1040   1.271       .  A
O1034     Cd1037   2.516       .  S
C1035      O1043   1.267       .  A
C1035      C1048   1.484       .  S
C1036      O1041   1.270       .  A
C1036      O1039   1.262       .  A
C1036      C1093   1.488       .  S
Cd1037     O1044   2.458       .  S
Cd1037     O1043   2.460       .  S
Cd1037     O1042   2.442       .  S
Cd1037     O1038   2.459       .  S
Cd1037     O1041   2.533       .  S
Cd1037     O1039   2.434       .  S
C1040      O1044   1.263       .  A
C1040      C1216   1.492       .  S
C1045      C1046   1.406       .  A
C1045      C1050   1.413       .  A
C1046      C1047   1.401       .  A
C1046      H1051   1.083       .  S
C1047      C1048   1.410       .  A
C1047      O1052   1.372       .  S
C1048      C1049   1.405       .  A
C1049      C1050   1.403       .  A
C1049      H1053   1.084       .  S
C1050      O1054   1.371       .  S
O1052      H1056   0.993       .  S
O1054      H1055   0.993       .  S
C1057      C1058   1.406       .  A
C1057      C1062   1.409       .  A
C1058      H1063   1.084       .  S
C1059      C1060   1.411       .  A
C1059      O1064   1.371       .  S
C1060      C1061   1.409       .  A
C1061      H1065   1.083       .  S
C1062      O1066   1.372       .  S
O1064      H1068   0.993       .  S
O1066      H1067   0.991       .  S
C1069      C1070   1.404       .  A
C1069      C1074   1.410       .  A
C1070      C1071   1.400       .  A
C1070      H1075   1.084       .  S
C1071      C1072   1.413       .  A
C1071      O1076   1.371       .  S
C1072      C1073   1.408       .  A
C1073      C1074   1.405       .  A
C1073      H1077   1.083       .  S
C1074      O1078   1.372       .  S
O1076      H1080   0.992       .  S
O1078      H1079   0.991       .  S
C1081      C1082   1.404       .  A
C1081      C1086   1.412   1_556  A
C1082      C1083   1.400       .  A
C1082      H1087   1.084       .  S
C1083      C1084   1.413   1_556  A
C1083      O1088   1.372       .  S
C1084      C1085   1.403       .  A
C1085      C1086   1.399       .  A
C1085      H1089   1.083       .  S
C1086      O1090   1.372       .  S
O1088      H1092   0.997       .  S
O1090      H1091   0.991       .  S
C1093      C1094   1.407       .  A
C1093      C1098   1.409       .  A
C1094      C1095   1.402       .  A
C1094      H1099   1.084       .  S
C1095      C1096   1.409       .  A
C1095      O1100   1.371       .  S
C1096      C1097   1.410       .  A
C1097      C1098   1.405       .  A
C1097      H1101   1.083       .  S
C1098      O1102   1.371       .  S
O1100      H1104   0.991       .  S
O1102      H1103   0.985       .  S
C1105      C1106   1.406       .  A
C1105      C1110   1.411       .  A
C1106      C1107   1.402       .  A
C1106      H1111   1.083       .  S
C1107      C1108   1.411       .  A
C1107      O1112   1.371       .  S
C1108      C1109   1.404       .  A
C1109      C1110   1.399       .  A
C1109      H1113   1.083       .  S
C1110      O1114   1.372       .  S
O1112      H1116   0.993       .  S
O1114      H1115   0.991       .  S
C1117      C1118   1.401       .  A
C1117      C1122   1.415       .  A
C1118      C1119   1.396       .  A
C1118      H1123   1.083       .  S
C1119      C1120   1.413       .  A
C1119      O1124   1.372       .  S
C1120      C1121   1.404       .  A
C1121      C1122   1.402       .  A
C1121      H1125   1.083       .  S
C1122      O1126   1.372       .  S
O1124      H1128   0.991       .  S
O1126      H1127   0.992       .  S
C1129      C1130   1.403       .  A
C1129      C1578   1.414   1_545  A
C1130      C1131   1.407       .  A
C1130      H1135   1.083       .  S
C1131      C1576   1.417   1_545  A
C1131      O1136   1.372       .  S
C1132      C1575   1.418       .  A
C1132      C1133   1.404       .  A
C1133      C1134   1.405       .  A
C1133      H1137   1.083       .  S
C1134      C1573   1.414       .  A
C1134      O1138   1.372       .  S
O1136      H1140   0.991       .  S
O1138      H1139   0.992       .  S
C1141      C1146   1.407       .  A
C1142      C1143   1.404       .  A
C1142      H1147   1.083       .  S
C1143      C1144   1.409       .  A
C1143      O1148   1.371       .  S
C1145      C1146   1.402       .  A
C1145      H1149   1.083       .  S
C1146      O1150   1.371       .  S
O1148      H1152   0.995       .  S
O1150      H1151   0.994       .  S
C1153      C1154   1.406   1_545  A
C1153      C1158   1.406   1_556  A
C1154      C1599   1.401       .  A
C1154      H1159   1.084       .  S
C1155      C1598   1.401       .  A
C1155      C1156   1.410   1_556  A
C1155      O1160   1.372       .  S
C1156      C1157   1.408       .  A
C1157      C1602   1.401       .  A
C1157      H1161   1.084       .  S
C1158      C1601   1.401   1_545  A
C1158      O1162   1.371       .  S
O1160      H1164   0.980       .  S
O1162      H1163   0.996       .  S
C1165      C1166   1.403       .  A
C1165      C1170   1.408       .  A
C1166      C1167   1.402       .  A
C1166      H1171   1.084       .  S
C1167      C1168   1.413       .  A
C1167      O1172   1.371       .  S
C1168      C1169   1.406       .  A
C1169      C1170   1.399       .  A
C1169      H1173   1.083       .  S
C1170      O1174   1.372       .  S
O1172      H1176   0.993       .  S
O1174      H1175   0.993       .  S
C1177      C1178   1.405       .  A
C1177      C1182   1.413       .  A
C1178      C1179   1.405       .  A
C1178      H1183   1.083       .  S
C1179      C1180   1.416       .  A
C1179      O1184   1.372       .  S
C1180      C1181   1.403       .  A
C1181      C1182   1.402       .  A
C1181      H1185   1.083       .  S
C1182      O1186   1.371       .  S
O1184      H1188   0.992       .  S
O1186      H1187   0.992       .  S
C1189      C1194   1.409       .  A
C1190      C1191   1.403       .  A
C1190      H1195   1.084       .  S
C1191      C1192   1.411       .  A
C1191      O1196   1.371       .  S
C1192      C1193   1.409       .  A
C1193      H1197   1.083       .  S
C1194      O1198   1.371       .  S
O1196      H1200   0.992       .  S
O1198      H1199   0.990       .  S
C1201      C1202   1.405       .  A
C1201      C1206   1.413       .  A
C1202      C1203   1.403       .  A
C1202      H1207   1.083       .  S
C1203      C1204   1.414       .  A
C1203      O1652   1.372   1_545  S
C1204      C1205   1.403       .  A
C1205      C1206   1.401       .  A
C1205      H1209   1.083       .  S
C1206      O1210   1.372       .  S
O1208      C1647   1.372       .  S
O1208      H1656   0.992       .  S
O1210      H1211   0.990       .  S
H1212      O1652   0.992       .  S
C1213      C1214   1.404       .  A
C1214      C1215   1.406       .  A
C1214      H1219   1.083       .  S
C1215      O1220   1.372       .  S
C1216      C1217   1.403       .  A
C1217      C1218   1.405       .  A
C1217      H1221   1.083       .  S
C1218      O1222   1.372       .  S
O1220      H1224   0.992       .  S
O1222      H1223   0.992       .  S
C1225      C1226   1.404       .  A
C1225      C1230   1.413       .  A
C1226      C1227   1.398       .  A
C1226      H1231   1.083       .  S
C1227      C1228   1.410       .  A
C1227      O1232   1.371       .  S
C1228      C1229   1.405       .  A
C1229      C1230   1.402       .  A
C1229      H1233   1.083       .  S
C1230      O1234   1.372       .  S
O1232      H1236   0.993       .  S
O1234      H1235   0.989       .  S
C1237      C1238   1.406       .  A
C1237      C1242   1.411       .  A
C1238      C1239   1.400       .  A
C1238      H1243   1.083       .  S
C1239      C1240   1.410       .  A
C1239      O1244   1.371       .  S
C1240      C1241   1.406       .  A
C1241      C1242   1.401       .  A
C1241      H1245   1.083       .  S
C1242      O1246   1.372       .  S
O1244      H1248   0.992       .  S
O1246      H1247   0.991       .  S
C1249      C1250   1.405       .  A
C1249      C1698   1.416       .  A
C1250      C1251   1.406       .  A
C1250      H1255   1.083       .  S
C1251      C1696   1.415       .  A
C1251      O1256   1.371       .  S
C1252      C1695   1.415   1_545  A
C1252      C1253   1.402       .  A
C1253      C1254   1.401       .  A
C1253      H1257   1.083       .  S
C1254      C1693   1.415   1_545  A
C1254      O1258   1.372       .  S
O1256      H1260   0.993       .  S
O1258      H1259   0.992       .  S
C1261      C1262   1.409       .  A
C1261      C1266   1.410       .  A
C1262      C1263   1.404       .  A
C1262      H1267   1.083       .  S
C1263      C1264   1.409       .  A
C1263      O1268   1.371       .  S
C1264      C1265   1.408       .  A
C1265      C1266   1.404       .  A
C1265      H1269   1.084       .  S
C1266      O1270   1.371       .  S
O1268      H1272   0.988       .  S
O1270      H1271   0.987       .  S
C1273      C1274   1.403       .  A
C1273      C1278   1.412       .  A
C1274      C1275   1.398       .  A
C1274      H1279   1.084       .  S
C1275      C1276   1.413       .  A
C1275      O1280   1.372       .  S
C1276      C1277   1.404       .  A
C1277      C1278   1.401       .  A
C1277      H1281   1.083       .  S
C1278      O1282   1.372       .  S
O1280      H1284   0.991       .  S
O1282      H1283   0.992       .  S
C1285      C1286   1.404       .  A
C1285      C1290   1.413       .  A
C1286      C1287   1.406       .  A
C1286      H1291   1.083       .  S
C1287      C1288   1.416       .  A
C1287      O1292   1.372       .  S
C1288      C1289   1.404       .  A
C1289      C1290   1.403       .  A
C1289      H1293   1.083       .  S
C1290      O1294   1.371       .  S
O1292      H1296   0.992       .  S
O1294      H1295   0.991       .  S
C1297      C1298   1.405   1_554  A
C1297      C1302   1.414   1_545  A
C1298      C1743   1.406   1_545  A
C1298      H1303   1.083       .  S
C1299      C1742   1.406       .  A
C1299      C1300   1.413       .  A
C1299      O1304   1.371       .  S
C1300      C1301   1.401   1_556  A
C1301      C1746   1.401       .  A
C1301      H1305   1.084       .  S
C1302      C1745   1.401       .  A
C1302      O1306   1.372       .  S
O1304      H1752   0.991       .  S
O1306      H1751   0.995       .  S
H1307      O1750   0.995       .  S
H1308      O1748   0.991       .  S
C1309      C1310   1.401       .  A
C1309      C1314   1.408       .  A
C1310      C1311   1.401       .  A
C1310      H1315   1.084       .  S
C1311      C1312   1.413       .  A
C1311      O1316   1.372       .  S
C1312      C1313   1.404       .  A
C1313      C1314   1.401       .  A
C1313      H1317   1.083       .  S
C1314      O1318   1.372       .  S
O1316      H1320   0.993       .  S
O1318      H1319   0.992       .  S
C1321      C1322   1.404       .  A
C1321      C1326   1.413   1_556  A
C1322      C1323   1.399       .  A
C1322      H1327   1.083       .  S
C1323      C1324   1.412   1_556  A
C1323      O1328   1.371       .  S
C1324      C1325   1.405       .  A
C1325      C1326   1.402       .  A
C1325      H1329   1.083       .  S
C1326      O1330   1.372       .  S
O1328      H1332   0.993       .  S
O1330      H1331   0.992       .  S
O1333      C1336   1.269       .  A
O1333     Cd1338   2.475       .  S
C1334      O1343   1.266       .  A
C1334      O1339   1.268       .  A
C1334      C1756   1.482       .  S
O1335      C1341   1.271       .  A
O1335     Cd1338   2.529       .  S
C1336      O1344   1.266       .  A
C1336      C1768   1.485       .  S
C1337      O1342   1.263       .  A
C1337      O1340   1.270       .  A
C1337      C1729   1.491       .  S
Cd1338     O1345   2.425       .  S
Cd1338     O1344   2.450       .  S
Cd1338     O1343   2.448       .  S
Cd1338     O1339   2.475       .  S
Cd1338     O1342   2.462       .  S
Cd1338     O1340   2.522       .  S
C1341      O1345   1.262       .  A
C1341      C1741   1.489       .  S
O1346      C1349   1.269       .  A
C1347      O1356   1.267       .  A
C1347      O1352   1.267       .  A
C1347      C1753   1.475       .  S
O1348      C1354   1.269       .  A
O1348     Cd1351   2.520       .  S
C1349      C1720   1.483       .  S
C1350      O1355   1.271       .  A
C1350      O1353   1.263       .  A
C1350      C1696   1.491       .  S
Cd1351     O1358   2.453       .  S
Cd1351     O1357   2.431       .  S
Cd1351     O1356   2.467       .  S
Cd1351     O1352   2.461       .  S
Cd1351     O1355   2.504       .  S
Cd1351     O1353   2.478       .  S
C1354      O1358   1.262       .  A
C1354      C1705   1.491       .  S
O1359      C1362   1.266       .  A
C1360      O1369   1.268       .  A
C1360      O1365   1.267       .  A
C1360      C1669   1.484       .  S
O1361      C1367   1.271       .  A
O1361     Cd1364   2.527       .  S
C1362      C1681   1.484       .  S
C1363      O1368   1.271       .  A
C1363      O1366   1.264       .  A
C1363      C1657   1.494       .  S
Cd1364     O1371   2.452       .  S
Cd1364     O1370   2.454       .  S
Cd1364     O1369   2.443       .  S
Cd1364     O1365   2.467       .  S
Cd1364     O1368   2.524       .  S
Cd1364     O1366   2.469       .  S
C1367      O1371   1.262       .  A
C1367      C1708   1.491       .  S
O1372      C1375   1.268       .  A
O1372     Cd1377   2.472       .  S
C1373      O1382   1.264       .  A
C1373      O1378   1.269       .  A
C1373      C1645   1.488       .  S
O1374      C1380   1.269       .  A
O1374     Cd1377   2.515       .  S
C1375      O1383   1.266       .  A
C1375      C1672   1.483       .  S
C1376      O1381   1.268       .  A
C1376      O1379   1.263       .  A
C1376      C1633   1.488       .  S
Cd1377     O1384   2.460       .  S
Cd1377     O1383   2.450       .  S
Cd1377     O1382   2.440       .  S
Cd1377     O1378   2.498       .  S
Cd1377     O1381   2.507       .  S
Cd1377     O1379   2.451       .  S
C1380      O1384   1.263       .  A
C1380      C1621   1.490       .  S
O1385      C1388   1.269       .  A
O1385     Cd1390   2.449       .  S
C1386      O1395   1.267       .  A
C1386      O1391   1.268       .  A
C1386      C1612   1.485       .  S
O1387      C1393   1.271       .  A
O1387     Cd1390   2.494       .  S
C1388      O1396   1.266       .  A
C1389      O1394   1.272       .  A
C1389      O1392   1.263       .  A
C1389      C1588   1.488       .  S
Cd1390     O1397   2.424       .  S
Cd1390     O1396   2.458       .  S
Cd1390     O1395   2.461       .  S
Cd1390     O1391   2.451       .  S
Cd1390     O1394   2.519       .  S
Cd1390     O1392   2.426       .  S
C1393      O1397   1.263       .  A
C1393      C1597   1.479       .  S
O1398      C1401   1.269       .  A
O1398     Cd1403   2.457       .  S
C1399      O1404   1.270       .  A
C1399      C1564   1.483       .  S
O1400      C1406   1.272       .  A
O1400     Cd1403   2.535       .  S
C1401      O1409   1.268       .  A
C1401      C1609   1.478       .  S
C1402      O1407   1.269       .  A
C1402      O1405   1.263       .  A
C1402      C1636   1.492       .  S
Cd1403     O1410   2.441       .  S
Cd1403     O1409   2.458       .  S
Cd1403     O1408   2.410       .  S
Cd1403     O1407   2.519       .  S
Cd1403     O1405   2.455       .  S
C1406      O1410   1.263       .  A
C1406      C1573   1.492       .  S
O1411      C1414   1.267       .  A
C1412      O1421   1.268       .  A
C1412      O1417   1.269       .  A
C1412      C1549   1.483       .  S
O1413      C1419   1.270       .  A
O1413     Cd1416   2.519       .  S
C1414      C1684   1.485       .  S
C1415      O1420   1.272       .  A
C1415      O1418   1.263       .  A
C1415      C1693   1.492       .  S
Cd1416     O1423   2.448       .  S
Cd1416     O1422   2.462       .  S
Cd1416     O1421   2.445       .  S
Cd1416     O1417   2.452       .  S
Cd1416     O1420   2.516       .  S
Cd1416     O1418   2.432       .  S
C1419      O1423   1.262       .  A
C1419      C1540   1.490       .  S
O1424      C1427   1.269       .  A
O1424     Cd1429   2.483       .  S
C1425      O1434   1.263       .  A
C1425      O1430   1.269       .  A
C1425      C1528   1.483       .  S
O1426      C1432   1.271       .  A
O1426     Cd1429   2.499       .  S
C1427      O1435   1.267       .  A
C1427      C1552   1.483       .  S
C1428      O1433   1.268       .  A
C1428      O1431   1.261       .  A
C1428      C1600   1.485       .  S
Cd1429     O1436   2.451       .  S
Cd1429     O1435   2.444       .  S
Cd1429     O1434   2.444       .  S
Cd1429     O1430   2.471       .  S
Cd1429     O1433   2.504       .  S
Cd1429     O1431   2.446       .  S
C1432      O1436   1.264       .  A
C1432      C1732   1.492       .  S
O1437      C1440   1.268       .  A
O1437     Cd1442   2.447       .  S
C1438      O1443   1.268       .  A
C1438      C1525   1.483       .  S
O1439      C1445   1.272       .  A
O1439     Cd1442   2.527       .  S
C1440      O1448   1.269       .  A
C1440      C1513   1.484       .  S
C1441      O1446   1.270       .  A
C1441      O1444   1.263       .  A
C1441      C1744   1.485       .  S
Cd1442     O1449   2.437       .  S
Cd1442     O1448   2.472       .  S
Cd1442     O1447   2.442       .  S
Cd1442     O1446   2.498       .  S
Cd1442     O1444   2.456       .  S
C1445      O1449   1.262       .  A
C1445      C1585   1.489       .  S
O1450      C1453   1.268       .  A
O1450     Cd1455   2.467       .  S
C1451      O1456   1.270       .  A
C1451      C1648   1.488       .  S
O1452      C1458   1.272       .  A
O1452     Cd1455   2.533       .  S
C1453      O1461   1.268       .  A
C1453      C1516   1.491       .  S
C1454      O1459   1.271       .  A
C1454      O1457   1.263       .  A
C1454      C1501   1.485       .  S
Cd1455     O1462   2.453       .  S
Cd1455     O1461   2.489       .  S
Cd1455     O1460   2.455       .  S
Cd1455     O1459   2.520       .  S
Cd1455     O1457   2.445       .  S
C1458      O1462   1.263       .  A
C1458      C1576   1.496       .  S
O1463      C1466   1.269       .  A
O1463     Cd1468   2.464       .  S
C1464      O1473   1.262       .  A
C1464      O1469   1.269       .  A
C1464      C1561   1.483       .  S
O1465      C1471   1.270       .  A
O1465     Cd1468   2.502       .  S
C1466      O1474   1.269       .  A
C1466      C1489   1.488       .  S
C1467      O1472   1.269       .  A
C1467      O1470   1.264       .  A
C1467      C1504   1.491       .  S
Cd1468     O1475   2.470       .  S
Cd1468     O1474   2.463       .  S
Cd1468     O1473   2.437       .  S
Cd1468     O1469   2.473       .  S
Cd1468     O1472   2.497       .  S
Cd1468     O1470   2.466       .  S
C1471      O1475   1.263       .  A
C1471      C1624   1.492       .  S
O1476      C1479   1.268       .  A
O1476     Cd1481   2.475       .  S
C1477      O1486   1.265       .  A
C1477      O1482   1.268       .  A
O1478      C1484   1.271       .  A
O1478     Cd1481   2.516       .  S
C1479      O1487   1.267       .  A
C1479      C1492   1.484       .  S
C1480      O1485   1.269       .  A
C1480      O1483   1.262       .  A
C1480      C1537   1.488       .  S
Cd1481     O1488   2.458       .  S
Cd1481     O1487   2.459       .  S
Cd1481     O1486   2.441       .  S
Cd1481     O1482   2.459       .  S
Cd1481     O1485   2.532       .  S
Cd1481     O1483   2.434       .  S
C1484      O1488   1.263       .  A
C1484      C1660   1.492       .  S
C1489      C1490   1.406       .  A
C1489      C1494   1.413       .  A
C1490      C1491   1.401       .  A
C1490      H1495   1.083       .  S
C1491      C1492   1.410       .  A
C1491      O1496   1.372       .  S
C1492      C1493   1.405       .  A
C1493      C1494   1.403       .  A
C1493      H1497   1.084       .  S
C1494      O1498   1.371       .  S
O1496      H1500   0.993       .  S
O1498      H1499   0.993       .  S
C1501      C1502   1.406       .  A
C1501      C1506   1.409       .  A
C1502      H1507   1.084       .  S
C1503      C1504   1.411       .  A
C1503      O1508   1.371       .  S
C1504      C1505   1.409       .  A
C1505      H1509   1.083       .  S
C1506      O1510   1.372       .  S
O1508      H1512   0.993       .  S
O1510      H1511   0.991       .  S
C1513      C1514   1.404       .  A
C1513      C1518   1.410       .  A
C1514      C1515   1.400       .  A
C1514      H1519   1.084       .  S
C1515      C1516   1.413       .  A
C1515      O1520   1.371       .  S
C1516      C1517   1.408       .  A
C1517      C1518   1.405       .  A
C1517      H1521   1.083       .  S
C1518      O1522   1.372       .  S
O1520      H1524   0.992       .  S
O1522      H1523   0.991       .  S
C1525      C1526   1.404       .  A
C1525      C1530   1.413   1_556  A
C1526      C1527   1.400       .  A
C1526      H1531   1.083       .  S
C1527      C1528   1.413   1_556  A
C1527      O1532   1.372       .  S
C1528      C1529   1.403       .  A
C1529      C1530   1.399       .  A
C1529      H1533   1.083       .  S
C1530      O1534   1.372       .  S
O1532      H1536   0.997       .  S
O1534      H1535   0.991       .  S
C1537      C1538   1.407       .  A
C1537      C1542   1.410       .  A
C1538      C1539   1.402       .  A
C1538      H1543   1.084       .  S
C1539      C1540   1.409       .  A
C1539      O1544   1.371       .  S
C1540      C1541   1.410       .  A
C1541      C1542   1.404       .  A
C1541      H1545   1.083       .  S
C1542      O1546   1.371       .  S
O1544      H1548   0.991       .  S
O1546      H1547   0.985       .  S
C1549      C1550   1.406       .  A
C1549      C1554   1.411       .  A
C1550      C1551   1.402       .  A
C1550      H1555   1.083       .  S
C1551      C1552   1.411       .  A
C1551      O1556   1.371       .  S
C1552      C1553   1.404       .  A
C1553      C1554   1.399       .  A
C1553      H1557   1.084       .  S
C1554      O1558   1.372       .  S
O1556      H1560   0.993       .  S
O1558      H1559   0.991       .  S
C1561      C1562   1.401       .  A
C1561      C1566   1.415       .  A
C1562      C1563   1.396       .  A
C1562      H1567   1.083       .  S
C1563      C1564   1.413       .  A
C1563      O1568   1.372       .  S
C1564      C1565   1.404       .  A
C1565      C1566   1.402       .  A
C1565      H1569   1.083       .  S
C1566      O1570   1.372       .  S
O1568      H1572   0.991   1_565  S
O1570      H1571   0.992       .  S
C1573      C1574   1.403       .  A
C1574      C1575   1.407       .  A
C1574      H1579   1.083       .  S
C1575      O1580   1.372       .  S
C1576      C1577   1.404       .  A
C1577      C1578   1.405       .  A
C1577      H1581   1.083       .  S
C1578      O1582   1.372       .  S
O1580      H1584   0.991       .  S
O1582      H1583   0.992       .  S
C1585      C1590   1.407       .  A
C1586      C1587   1.404       .  A
C1586      H1591   1.083       .  S
C1587      C1588   1.408       .  A
C1587      O1592   1.371       .  S
C1589      C1590   1.403       .  A
C1589      H1593   1.083       .  S
C1590      O1594   1.371       .  S
O1592      H1596   0.995       .  S
O1594      H1595   0.994       .  S
C1597      C1598   1.406       .  A
C1597      C1602   1.406   1_556  A
C1598      H1603   1.084       .  S
C1599      C1600   1.410   1_556  A
C1599      O1604   1.372       .  S
C1600      C1601   1.408       .  A
C1601      H1605   1.084       .  S
C1602      O1606   1.371       .  S
O1604      H1608   0.980       .  S
O1606      H1607   0.996       .  S
C1609      C1610   1.403       .  A
C1609      C1614   1.408       .  A
C1610      C1611   1.402       .  A
C1610      H1615   1.084       .  S
C1611      C1612   1.413       .  A
C1611      O1616   1.371       .  S
C1612      C1613   1.406       .  A
C1613      C1614   1.399       .  A
C1613      H1617   1.083       .  S
C1614      O1618   1.371       .  S
O1616      H1620   0.993       .  S
O1618      H1619   0.993       .  S
C1621      C1622   1.405       .  A
C1621      C1626   1.413       .  A
C1622      C1623   1.405       .  A
C1622      H1627   1.083       .  S
C1623      C1624   1.416       .  A
C1623      O1628   1.372       .  S
C1624      C1625   1.403       .  A
C1625      C1626   1.402       .  A
C1625      H1629   1.083       .  S
C1626      O1630   1.371       .  S
O1628      H1632   0.992       .  S
O1630      H1631   0.992       .  S
C1633      C1638   1.409       .  A
C1634      C1635   1.404       .  A
C1634      H1639   1.084       .  S
C1635      C1636   1.411       .  A
C1635      O1640   1.371       .  S
C1636      C1637   1.409       .  A
C1637      H1641   1.083       .  S
C1638      O1642   1.371       .  S
O1640      H1644   0.992       .  S
O1642      H1643   0.989       .  S
C1645      C1646   1.405       .  A
C1645      C1650   1.413       .  A
C1646      C1647   1.403       .  A
C1646      H1651   1.083       .  S
C1647      C1648   1.414       .  A
C1648      C1649   1.403       .  A
C1649      C1650   1.401       .  A
C1649      H1653   1.083       .  S
C1650      O1654   1.372       .  S
O1654      H1655   0.990       .  S
C1657      C1658   1.404       .  A
C1658      C1659   1.406       .  A
C1658      H1663   1.083       .  S
C1659      O1664   1.372       .  S
C1660      C1661   1.403       .  A
C1661      C1662   1.405       .  A
C1661      H1665   1.083       .  S
C1662      O1666   1.372       .  S
O1664      H1668   0.992       .  S
O1666      H1667   0.992       .  S
C1669      C1670   1.404       .  A
C1669      C1674   1.413       .  A
C1670      C1671   1.398       .  A
C1670      H1675   1.083       .  S
C1671      C1672   1.410       .  A
C1671      O1676   1.371       .  S
C1672      C1673   1.405       .  A
C1673      C1674   1.402       .  A
C1673      H1677   1.083       .  S
C1674      O1678   1.372       .  S
O1676      H1680   0.993       .  S
O1678      H1679   0.989       .  S
C1681      C1682   1.406       .  A
C1681      C1686   1.411       .  A
C1682      C1683   1.400       .  A
C1682      H1687   1.083       .  S
C1683      C1684   1.410       .  A
C1683      O1688   1.371       .  S
C1684      C1685   1.406       .  A
C1685      C1686   1.401       .  A
C1685      H1689   1.083       .  S
C1686      O1690   1.372       .  S
O1688      H1692   0.992       .  S
O1690      H1691   0.991       .  S
C1693      C1694   1.405       .  A
C1694      C1695   1.407       .  A
C1694      H1699   1.083       .  S
C1695      O1700   1.372       .  S
C1696      C1697   1.402       .  A
C1697      C1698   1.401       .  A
C1697      H1701   1.083       .  S
C1698      O1702   1.372       .  S
O1700      H1704   0.993       .  S
O1702      H1703   0.992       .  S
C1705      C1706   1.409       .  A
C1705      C1710   1.410       .  A
C1706      C1707   1.404       .  A
C1706      H1711   1.083       .  S
C1707      C1708   1.409       .  A
C1707      O1712   1.371       .  S
C1708      C1709   1.409       .  A
C1709      C1710   1.404       .  A
C1709      H1713   1.084       .  S
C1710      O1714   1.371       .  S
O1712      H1716   0.988       .  S
O1714      H1715   0.987       .  S
C1717      C1718   1.403       .  A
C1717      C1722   1.412       .  A
C1718      C1719   1.398       .  A
C1718      H1723   1.084       .  S
C1719      C1720   1.413       .  A
C1719      O1724   1.372       .  S
C1720      C1721   1.404       .  A
C1721      C1722   1.400       .  A
C1721      H1725   1.083       .  S
C1722      O1726   1.372       .  S
O1724      H1728   0.992       .  S
O1726      H1727   0.992       .  S
C1729      C1730   1.404       .  A
C1729      C1734   1.413       .  A
C1730      C1731   1.406       .  A
C1730      H1735   1.083       .  S
C1731      C1732   1.416       .  A
C1731      O1736   1.372       .  S
C1732      C1733   1.404       .  A
C1733      C1734   1.403       .  A
C1733      H1737   1.083       .  S
C1734      O1738   1.371       .  S
O1736      H1740   0.992       .  S
O1738      H1739   0.991       .  S
C1741      C1742   1.405   1_554  A
C1741      C1746   1.414       .  A
C1742      H1747   1.083       .  S
C1743      C1744   1.413       .  A
C1743      O1748   1.371       .  S
C1744      C1745   1.402   1_556  A
C1745      H1749   1.084       .  S
C1746      O1750   1.372       .  S
C1753      C1754   1.401       .  A
C1753      C1758   1.408       .  A
C1754      C1755   1.401       .  A
C1754      H1759   1.084       .  S
C1755      C1756   1.413       .  A
C1755      O1760   1.372       .  S
C1756      C1757   1.404       .  A
C1757      C1758   1.401       .  A
C1757      H1761   1.083       .  S
C1758      O1762   1.372       .  S
O1760      H1764   0.994       .  S
O1762      H1763   0.992       .  S
C1765      C1766   1.404       .  A
C1765      C1770   1.413   1_556  A
C1766      C1767   1.399       .  A
C1766      H1771   1.083       .  S
C1767      C1768   1.412   1_556  A
C1767      O1772   1.371       .  S
C1768      C1769   1.405       .  A
C1769      C1770   1.403       .  A
C1769      H1773   1.083       .  S
C1770      O1774   1.372       .  S
O1772      H1776   0.993       .  S
O1774      H1775   0.992       .  S
