geometry optimzed in LAMMPS
_audit_creation_date              2020-12-01 
_audit_creation_method            'lammps2cif' 
_symmetry_space_group_name_H-M    'P1' 
_symmetry_Int_Tables_number       1 
_symmetry_cell_setting            triclinic 
loop_ 
_symmetry_equiv_pos_as_xyz 
  x,y,z 
_cell_length_a                    45.40424498 
_cell_length_b                    45.40230808891459 
_cell_length_c                    42.846369312660336 
_cell_angle_alpha                 90.008916768587 
_cell_angle_beta                  90.0096195530229 
_cell_angle_gamma                 89.99585317006024 
loop_ 
_atom_site_label 
_atom_site_type_symbol 
_atom_site_fract_x 
_atom_site_fract_y 
_atom_site_fract_z 
_atom_site_charge 
O1          O  0.33126119  0.01834843  0.65254451    -0.71000
O2          O  0.41694074  0.01899074  0.62273323    -0.71900
O3          O  0.36107055  0.00971586  0.59499303    -0.60500
O4          O  0.38850117  0.03098115  0.68048243    -0.69000
O5          O  0.39386500  0.98389725  0.69318863    -0.68500
O6          O  0.36407466  0.46199854  0.60600384    -0.59800
O7          O  0.41908544  0.47137819  0.63455283    -0.72300
O8          O  0.33693100  0.47124967  0.66510644    -0.71100
Cu9        Cu  0.37415526  0.02126030  0.63750719     1.04600
Cu10       Cu  0.37844607  0.47054583  0.65033705     1.04300
C11         C  0.32057655  0.99382732  0.66227799     0.95200
C12         C  0.43098845  0.99450299  0.62371616     0.94400
C13         C  0.35895281  0.48292076  0.58664122     0.86500
C14         C  0.39714453  0.01132381  0.69961093     0.92800
O15         O  0.45644528  0.05850445  0.89683126    -0.71000
O16         O  0.45707767  0.14418118  0.86699882    -0.71900
O17         O  0.44444828  0.08693206  0.83907536    -0.60500
O18         O  0.46572005  0.11438581  0.92455696    -0.69000
O19         O  0.51343371  0.11138511  0.91353754    -0.68500
O20         O  0.49152952  0.08157077  0.82636579    -0.59800
O21         O  0.50417328  0.13851297  0.85443168    -0.72300
O22         O  0.50405489  0.05636237  0.88500721    -0.71100
Cu23       Cu  0.45417133  0.10128845  0.88204719     1.04600
Cu24       Cu  0.50488254  0.09700008  0.86921175     1.04300
C25         C  0.48093303  0.04445814  0.89584785     0.95200
C26         C  0.48159552  0.15486650  0.85725976     0.94400
C27         C  0.46410406  0.07828868  0.81994586     0.86500
C28         C  0.49251558  0.11651333  0.93290139     0.92800
O29         O  0.16766992  0.43364390  0.65242403    -0.71000
O30         O  0.08197335  0.43307051  0.62262896    -0.71900
O31         O  0.13783490  0.44240622  0.59490318    -0.60500
O32         O  0.11043893  0.42094435  0.68035215    -0.69000
O33         O  0.10508367  0.46799949  0.69318844    -0.68500
O34         O  0.13484728  0.49009767  0.60605674    -0.59800
O35         O  0.07984094  0.48065763  0.63457954    -0.72300
O36         O  0.16200564  0.48071272  0.66512679    -0.71100
Cu37       Cu  0.12476581  0.43076480  0.63739050     1.04600
Cu38       Cu  0.12048579  0.48144967  0.65036573     1.06700
C39         C  0.17835963  0.45814323  0.66222538     0.95200
C40         C  0.06793055  0.45755870  0.62367827     0.94400
C41         C  0.13996628  0.46922084  0.58663332     0.86500
C42         C  0.10181217  0.44055909  0.69954377     0.92800
O43         O  0.04178502  0.30777366  0.86708821    -0.71000
O44         O  0.04237527  0.39347386  0.89688213    -0.71900
O45         O  0.03303301  0.33761502  0.92460789    -0.60500
O46         O  0.05449467  0.36500458  0.83915893    -0.69000
O47         O  0.00744228  0.37036693  0.82632225    -0.68500
O48         O  0.98534289  0.34061556  0.91346107    -0.59800
O49         O  0.99479092  0.39561619  0.88492928    -0.72300
O50         O  0.99471782  0.31344602  0.85439055    -0.71100
Cu51       Cu  0.04467304  0.35067949  0.88212022     1.04600
Cu52       Cu  0.99399046  0.35496946  0.86914731     1.04300
C53         C  0.01728375  0.29708740  0.85729030     0.95200
C54         C  0.01789021  0.40752133  0.89583412     0.94400
C55         C  0.00622037  0.33549661  0.93288337     0.86500
C56         C  0.03488212  0.37363530  0.81996751     0.92800
O57         O  0.98525128  0.11148620  0.10607093    -0.71000
O58         O  0.00729638  0.08173020  0.19322545    -0.71900
O59         O  0.99463854  0.13865695  0.16514357    -0.60500
O60         O  0.99463911  0.05648047  0.13461679    -0.69000
O61         O  0.04222675  0.05857618  0.12268698    -0.68500
O62         O  0.04171678  0.14427376  0.15248363    -0.59800
O63         O  0.05435707  0.08703506  0.18041235    -0.72300
O64         O  0.03294784  0.11444223  0.09495874    -0.71100
Cu65       Cu  0.99387254  0.09713206  0.15039164     1.04600
Cu66       Cu  0.04456312  0.10136684  0.13745055     1.04300
C67         C  0.00613981  0.11658199  0.08666366     0.95200
C68         C  0.03473183  0.07843382  0.19959417     0.94400
C69         C  0.01722387  0.15498799  0.16226564     0.86500
C70         C  0.01772970  0.04455299  0.12372199     0.92800
O71         O  0.13486918  0.46216440  0.41350616    -0.71000
O72         O  0.10504439  0.98415065  0.32636742    -0.71900
O73         O  0.16198652  0.47143380  0.35440203    -0.60500
O74         O  0.07984737  0.47162021  0.38500809    -0.69000
O75         O  0.08203224  0.01922474  0.39687053    -0.68500
O76         O  0.16769671  0.01851725  0.36701911    -0.59800
O77         O  0.11045069  0.03122253  0.33911315    -0.72300
O78         O  0.13790875  0.00986945  0.42457853    -0.71100
Cu79       Cu  0.12047772  0.47075839  0.36919572     1.04600
Cu80       Cu  0.12481182  0.02145991  0.38207866     1.04300
C81         C  0.14001687  0.48306443  0.43289308     0.95200
C82         C  0.10178250  0.01158286  0.31996975     0.94400
C83         C  0.17835946  0.99399418  0.35725225     0.86500
C84         C  0.06796534  0.99475074  0.39586969     0.92800
O85         O  0.36408214  0.49029998  0.41346974    -0.71000
O86         O  0.39384628  0.46830217  0.32630291    -0.71900
O87         O  0.33691719  0.48093737  0.35438896    -0.60500
O88         O  0.41908969  0.48093749  0.38491875    -0.69000
O89         O  0.41700395  0.43334054  0.39681825    -0.68500
O90         O  0.33130762  0.43385070  0.36702590    -0.59800
O91         O  0.38854537  0.42123263  0.33908994    -0.72300
O92         O  0.36113856  0.44259492  0.42455428    -0.71100
Cu93       Cu  0.37843982  0.48170371  0.36914349     1.04600
Cu94       Cu  0.37421413  0.43100377  0.38205613     1.04300
C95         C  0.35899057  0.46939892  0.43286479     0.95200
C96         C  0.39714687  0.44086892  0.31992033     0.94400
C97         C  0.32059012  0.45834755  0.35725608     0.86500
C98         C  0.43102240  0.45784159  0.39579658     0.92800
O99         O  0.49143139  0.37054594  0.19315404    -0.71000
O100        O  0.51338209  0.34070034  0.10601097    -0.71900
O101        O  0.50394352  0.39573063  0.13450337    -0.60500
O102        O  0.50413329  0.31359413  0.16512607    -0.69000
O103        O  0.45704679  0.30788531  0.15252836    -0.68500
O104        O  0.45633620  0.39354890  0.12266145    -0.59800
O105        O  0.46567420  0.33766464  0.09496083    -0.72300
O106        O  0.44435674  0.36513981  0.18042751    -0.71100
Cu107      Cu  0.50480682  0.35510181  0.15032338     1.04600
Cu108      Cu  0.45410228  0.35077007  0.13746207     1.04300
C109        C  0.46400264  0.37381213  0.19956067     0.95200
C110        C  0.49247418  0.33555087  0.08663458     0.94400
C111        C  0.48081103  0.40761389  0.12364972     0.86500
C112        C  0.48157177  0.29722168  0.16228690     0.92800
C113        C  0.41234473  0.43117419  0.29190930    -0.16500
C114        C  0.42638334  0.41928801  0.27124733     0.07500
C115        C  0.44247644  0.40314195  0.24820404     0.09400
C116        C  0.45432598  0.38905819  0.22755193    -0.17400
C117        C  0.03813766  0.49201449  0.40636004    -0.16500
C118        C  0.01353860  0.48300216  0.41092399     0.07500
C119        C  0.48542915  0.46969111  0.41089657     0.09400
C120        C  0.46084463  0.46064854  0.40629707    -0.17400
C121        C  0.28941441  0.46208278  0.35144310    -0.16500
C122        C  0.26405225  0.47031588  0.34930854     0.07500
C123        C  0.23487966  0.48194266  0.34930202     0.09400
C124        C  0.20952492  0.49019886  0.35143020    -0.17400
C125        C  0.48354634  0.43744129  0.11315442    -0.16500
C126        C  0.49256069  0.46203987  0.10858706     0.07500
C127        C  0.00587563  0.49014826  0.10861341     0.09400
C128        C  0.01492099  0.01473192  0.11321548    -0.17400
C129        C  0.48536778  0.26605516  0.16810987    -0.16500
C130        C  0.49362507  0.24069945  0.17023444     0.07500
C131        C  0.00525322  0.21152652  0.17022134     0.09400
C132        C  0.01348738  0.18616411  0.16808155    -0.17400
C133        C  0.08654711  0.02126917  0.29197587    -0.16500
C134        C  0.07247039  0.03312023  0.27131909     0.07500
C135        C  0.05632824  0.04920979  0.24826992     0.09400
C136        C  0.04443971  0.06324294  0.22760475    -0.17400
C137        C  0.00024872  0.32878668  0.96513057    -0.16500
C138        C  0.99915419  0.32613618  0.99320160     0.07500
C139        C  0.49947576  0.32614582  0.02631116     0.09400
C140        C  0.49839884  0.32881449  0.05438184    -0.17400
C141        C  0.14669774  0.47519886  0.55439284    -0.16500
C142        C  0.14937296  0.47631313  0.52632556     0.07500
C143        C  0.14939142  0.47602203  0.49321627     0.09400
C144        C  0.14674088  0.47712276  0.46514496    -0.17400
C145        C  0.08662140  0.43083691  0.72755044    -0.16500
C146        C  0.07258577  0.41896528  0.74822312     0.07500
C147        C  0.05648154  0.40286331  0.77129151     0.09400
C148        C  0.04460685  0.38882767  0.79196240    -0.17400
C149        C  0.49842250  0.12324356  0.96515957    -0.16500
C150        C  0.49947335  0.12591176  0.99323081     0.07500
C151        C  0.99911715  0.12592817  0.02633851     0.09400
C152        C  0.00018650  0.12328657  0.05441104    -0.17400
C153        C  0.48369669  0.01463110  0.90634008    -0.16500
C154        C  0.49273007  0.49003925  0.91091934     0.07500
C155        C  0.00605789  0.46193468  0.91091675     0.09400
C156        C  0.01510295  0.43734700  0.90633297    -0.17400
C157        C  0.48536643  0.18603640  0.85144525    -0.16500
C158        C  0.49361970  0.21139228  0.84932607     0.07500
C159        C  0.00525947  0.24055904  0.84934291     0.09400
C160        C  0.01351437  0.26591403  0.85148128    -0.17400
C161        C  0.35224713  0.47702182  0.55437528    -0.16500
C162        C  0.34960516  0.47599054  0.52629996     0.07500
C163        C  0.34961745  0.47637660  0.49319200     0.09400
C164        C  0.35227648  0.47533174  0.46511988    -0.17400
C165        C  0.46081463  0.49174247  0.61322413    -0.16500
C166        C  0.48540576  0.48271356  0.60863595     0.07500
C167        C  0.01351230  0.46939113  0.60862141     0.09400
C168        C  0.03810248  0.46034866  0.61319026    -0.17400
C169        C  0.20953189  0.46190685  0.66803661    -0.16500
C170        C  0.23488644  0.47015950  0.67017821     0.07500
C171        C  0.26405223  0.48179877  0.67020002     0.09400
C172        C  0.28940731  0.49005312  0.66808589    -0.17400
C173        C  0.41237531  0.02098839  0.72761377    -0.16500
C174        C  0.42644777  0.03285498  0.74826379     0.07500
C175        C  0.44257492  0.04898371  0.77129269     0.09400
C176        C  0.45443969  0.06305666  0.79194361    -0.17400
O177        O  0.33126118  0.51834841  0.65254458    -0.71000
O178        O  0.41694068  0.51899081  0.62273315    -0.71900
O179        O  0.36107047  0.50971585  0.59499306    -0.60500
O180        O  0.38850117  0.53098125  0.68048243    -0.69000
O181        O  0.39386504  0.48389737  0.69318863    -0.68500
O182        O  0.36407461  0.96199853  0.60600380    -0.59800
O183        O  0.41908542  0.97137809  0.63455280    -0.72300
O184        O  0.33693094  0.97124970  0.66510646    -0.71100
Cu185      Cu  0.37415522  0.52126032  0.63750719     1.04600
Cu186      Cu  0.37844602  0.97054578  0.65033703     1.04300
C187        C  0.32057658  0.49382731  0.66227800     0.95200
C188        C  0.43098849  0.49450306  0.62371613     0.94400
C189        C  0.35895280  0.98292076  0.58664119     0.86500
C190        C  0.39714450  0.51132385  0.69961091     0.92800
O191        O  0.45644534  0.55850440  0.89683125    -0.71000
O192        O  0.45707766  0.64418116  0.86699885    -0.71900
O193        O  0.44444837  0.58693199  0.83907532    -0.60500
O194        O  0.46572006  0.61438575  0.92455695    -0.69000
O195        O  0.51343372  0.61138507  0.91353754    -0.68500
O196        O  0.49152960  0.58157068  0.82636577    -0.59800
O197        O  0.50417323  0.63851290  0.85443164    -0.72300
O198        O  0.50405496  0.55636233  0.88500722    -0.71100
Cu199      Cu  0.45417137  0.60128839  0.88204719     1.04600
Cu200      Cu  0.50488256  0.59700002  0.86921175     1.04300
C201        C  0.48093307  0.54445806  0.89584788     0.95200
C202        C  0.48159553  0.65486647  0.85725974     0.94400
C203        C  0.46410412  0.57828863  0.81994592     0.86500
C204        C  0.49251563  0.61651329  0.93290137     0.92800
O205        O  0.16766983  0.93364393  0.65242401    -0.71000
O206        O  0.08197332  0.93307045  0.62262893    -0.71900
O207        O  0.13783485  0.94240628  0.59490319    -0.60500
O208        O  0.11043890  0.92094436  0.68035208    -0.69000
O209        O  0.10508362  0.96799947  0.69318844    -0.68500
O210        O  0.13484723  0.99009775  0.60605671    -0.59800
O211        O  0.07984087  0.98065759  0.63457951    -0.72300
O212        O  0.16200563  0.98071275  0.66512680    -0.71100
Cu213      Cu  0.12476574  0.93076481  0.63739046     1.04600
Cu214      Cu  0.12048574  0.98144970  0.65036573     1.06700
C215        C  0.17835956  0.95814323  0.66222537     0.95200
C216        C  0.06793049  0.95755874  0.62367827     0.94400
C217        C  0.13996621  0.96922093  0.58663332     0.86500
C218        C  0.10181218  0.94055910  0.69954370     0.92800
O219        O  0.04178495  0.80777373  0.86708816    -0.71000
O220        O  0.04237522  0.89347389  0.89688217    -0.71900
O221        O  0.03303294  0.83761505  0.92460786    -0.60500
O222        O  0.05449465  0.86500466  0.83915896    -0.69000
O223        O  0.00744227  0.87036703  0.82632228    -0.68500
O224        O  0.98534281  0.84061559  0.91346106    -0.59800
O225        O  0.99479088  0.89561629  0.88492931    -0.72300
O226        O  0.99471773  0.81344609  0.85439054    -0.71100
Cu227      Cu  0.04467300  0.85067953  0.88212021     1.04600
Cu228      Cu  0.99399040  0.85496952  0.86914733     1.04300
C229        C  0.01728367  0.79708745  0.85729028     0.95200
C230        C  0.01789021  0.90752134  0.89583412     0.94400
C231        C  0.00622030  0.83549667  0.93288335     0.86500
C232        C  0.03488205  0.87363536  0.81996759     0.92800
O233        O  0.98525127  0.61148618  0.10607094    -0.71000
O234        O  0.00729646  0.58173016  0.19322542    -0.71900
O235        O  0.99463854  0.63865689  0.16514354    -0.60500
O236        O  0.99463912  0.55648042  0.13461678    -0.69000
O237        O  0.04222674  0.55857620  0.12268693    -0.68500
O238        O  0.04171677  0.64427383  0.15248370    -0.59800
O239        O  0.05435715  0.58703510  0.18041237    -0.72300
O240        O  0.03294782  0.61444236  0.09495879    -0.71100
Cu241      Cu  0.99387254  0.59713202  0.15039164     1.04600
Cu242      Cu  0.04456313  0.60136690  0.13745056     1.04300
C243        C  0.00613980  0.61658203  0.08666371     0.95200
C244        C  0.03473185  0.57843379  0.19959413     0.94400
C245        C  0.01722385  0.65498792  0.16226568     0.86500
C246        C  0.01772979  0.54455308  0.12372198     0.92800
O247        O  0.13486918  0.96216439  0.41350613    -0.71000
O248        O  0.10504440  0.48415053  0.32636744    -0.71900
O249        O  0.16198645  0.97143369  0.35440199    -0.60500
O250        O  0.07984731  0.97162025  0.38500811    -0.69000
O251        O  0.08203226  0.51922471  0.39687047    -0.68500
O252        O  0.16769678  0.51851736  0.36701914    -0.59800
O253        O  0.11045079  0.53122244  0.33911309    -0.72300
O254        O  0.13790876  0.50986947  0.42457852    -0.71100
Cu255      Cu  0.12047770  0.97075841  0.36919570     1.04600
Cu256      Cu  0.12481185  0.52145994  0.38207863     1.04300
C257        C  0.14001688  0.98306437  0.43289307     0.95200
C258        C  0.10178254  0.51158286  0.31996973     0.94400
C259        C  0.17835941  0.49399423  0.35725227     0.86500
C260        C  0.06796542  0.49475075  0.39586963     0.92800
O261        O  0.36408226  0.99029994  0.41346977    -0.71000
O262        O  0.39384634  0.96830213  0.32630290    -0.71900
O263        O  0.33691733  0.98093742  0.35438898    -0.60500
O264        O  0.41908979  0.98093740  0.38491871    -0.69000
O265        O  0.41700410  0.93334047  0.39681826    -0.68500
O266        O  0.33130775  0.93385074  0.36702589    -0.59800
O267        O  0.38854546  0.92123260  0.33908998    -0.72300
O268        O  0.36113865  0.94259488  0.42455428    -0.71100
Cu269      Cu  0.37843991  0.98170368  0.36914349     1.04600
Cu270      Cu  0.37421424  0.93100374  0.38205614     1.04300
C271        C  0.35899064  0.96939891  0.43286478     0.95200
C272        C  0.39714691  0.94086887  0.31992038     0.94400
C273        C  0.32059010  0.95834758  0.35725610     0.86500
C274        C  0.43102240  0.95784148  0.39579655     0.92800
O275        O  0.49143148  0.87054605  0.19315403    -0.71000
O276        O  0.51338218  0.84070035  0.10601097    -0.71900
O277        O  0.50394361  0.89573069  0.13450340    -0.60500
O278        O  0.50413333  0.81359417  0.16512613    -0.69000
O279        O  0.45704686  0.80788529  0.15252830    -0.68500
O280        O  0.45633629  0.89354886  0.12266145    -0.59800
O281        O  0.46567428  0.83766463  0.09496084    -0.72300
O282        O  0.44435683  0.86513973  0.18042757    -0.71100
Cu283      Cu  0.50480689  0.85510185  0.15032340     1.04600
Cu284      Cu  0.45410232  0.85077004  0.13746207     1.04300
C285        C  0.46400266  0.87381212  0.19956065     0.95200
C286        C  0.49247420  0.83555088  0.08663460     0.94400
C287        C  0.48081104  0.90761392  0.12364974     0.86500
C288        C  0.48157177  0.79722172  0.16228688     0.92800
C289        C  0.41234473  0.93117410  0.29190925    -0.16500
C290        C  0.42638333  0.91928803  0.27124732     0.07500
C291        C  0.44247645  0.90314192  0.24820396     0.09400
C292        C  0.45432599  0.88905817  0.22755196    -0.17400
C293        C  0.03813765  0.99201456  0.40636010    -0.16500
C294        C  0.01353849  0.98300215  0.41092404     0.07500
C295        C  0.48542904  0.96969105  0.41089657     0.09400
C296        C  0.46084474  0.96064855  0.40629713    -0.17400
C297        C  0.28941460  0.96208283  0.35144317    -0.16500
C298        C  0.26405213  0.97031591  0.34930852     0.07500
C299        C  0.23487977  0.98194259  0.34930201     0.09400
C300        C  0.20952478  0.99019882  0.35143021    -0.17400
C301        C  0.48354630  0.93744124  0.11315445    -0.16500
C302        C  0.49256078  0.96203985  0.10858705     0.07500
C303        C  0.00587557  0.99014809  0.10861344     0.09400
C304        C  0.01492104  0.51473185  0.11321542    -0.17400
C305        C  0.48536785  0.76605514  0.16810990    -0.16500
C306        C  0.49362504  0.74069953  0.17023445     0.07500
C307        C  0.00525328  0.71152648  0.17022134     0.09400
C308        C  0.01348728  0.68616416  0.16808163    -0.17400
C309        C  0.08654709  0.52126907  0.29197592    -0.16500
C310        C  0.07247034  0.53312015  0.27131912     0.07500
C311        C  0.05632826  0.54920979  0.24826994     0.09400
C312        C  0.04443976  0.56324289  0.22760477    -0.17400
C313        C  0.00024865  0.82878673  0.96513057    -0.16500
C314        C  0.99915411  0.82613618  0.99320158     0.07500
C315        C  0.49947582  0.82614586  0.02631117     0.09400
C316        C  0.49839888  0.82881459  0.05438180    -0.17400
C317        C  0.14669768  0.97519888  0.55439282    -0.16500
C318        C  0.14937298  0.97631314  0.52632554     0.07500
C319        C  0.14939150  0.97602197  0.49321625     0.09400
C320        C  0.14674097  0.97712271  0.46514493    -0.17400
C321        C  0.08662140  0.93083681  0.72755046    -0.16500
C322        C  0.07258580  0.91896529  0.74822302     0.07500
C323        C  0.05648151  0.90286328  0.77129158     0.09400
C324        C  0.04460689  0.88882773  0.79196235    -0.17400
C325        C  0.49842251  0.62324351  0.96515958    -0.16500
C326        C  0.49947338  0.62591170  0.99323080     0.07500
C327        C  0.99911712  0.62592815  0.02633854     0.09400
C328        C  0.00018648  0.62328654  0.05441102    -0.17400
C329        C  0.48369671  0.51463111  0.90634008    -0.16500
C330        C  0.49273006  0.99003936  0.91091936     0.07500
C331        C  0.00605792  0.96193466  0.91091677     0.09400
C332        C  0.01510294  0.93734707  0.90633301    -0.17400
C333        C  0.48536643  0.68603637  0.85144525    -0.16500
C334        C  0.49361966  0.71139237  0.84932608     0.07500
C335        C  0.00525939  0.74055908  0.84934293     0.09400
C336        C  0.01351427  0.76591408  0.85148131    -0.17400
C337        C  0.35224713  0.97702184  0.55437525    -0.16500
C338        C  0.34960519  0.97599058  0.52629993     0.07500
C339        C  0.34961743  0.97637661  0.49319197     0.09400
C340        C  0.35227647  0.97533170  0.46511987    -0.17400
C341        C  0.46081464  0.99174238  0.61322414    -0.16500
C342        C  0.48540570  0.98271351  0.60863598     0.07500
C343        C  0.01351226  0.96939110  0.60862140     0.09400
C344        C  0.03810250  0.96034858  0.61319026    -0.17400
C345        C  0.20953187  0.96190681  0.66803662    -0.16500
C346        C  0.23488637  0.97015952  0.67017823     0.07500
C347        C  0.26405221  0.98179879  0.67020003     0.09400
C348        C  0.28940725  0.99005317  0.66808588    -0.17400
C349        C  0.41237535  0.52098845  0.72761382    -0.16500
C350        C  0.42644776  0.53285494  0.74826371     0.07500
C351        C  0.44257496  0.54898374  0.77129274     0.09400
C352        C  0.45443970  0.56305661  0.79194351    -0.17400
O353        O  0.83126119  0.01834844  0.65254455    -0.71000
O354        O  0.91694069  0.01899071  0.62273319    -0.71900
O355        O  0.86107050  0.00971585  0.59499306    -0.60500
O356        O  0.88850116  0.03098115  0.68048246    -0.69000
O357        O  0.89386508  0.98389726  0.69318866    -0.68500
O358        O  0.86407460  0.46199855  0.60600384    -0.59800
O359        O  0.91908544  0.47137818  0.63455279    -0.72300
O360        O  0.83693100  0.47124967  0.66510646    -0.71100
Cu361      Cu  0.87415523  0.02126030  0.63750721     1.04600
Cu362      Cu  0.87844606  0.47054583  0.65033704     1.04300
C363        C  0.82057667  0.99382733  0.66227797     0.95200
C364        C  0.93098845  0.99450300  0.62371616     0.94400
C365        C  0.85895279  0.48292076  0.58664123     0.86500
C366        C  0.89714455  0.01132382  0.69961094     0.92800
O367        O  0.95644535  0.05850446  0.89683125    -0.71000
O368        O  0.95707767  0.14418119  0.86699884    -0.71900
O369        O  0.94444839  0.08693205  0.83907532    -0.60500
O370        O  0.96572002  0.11438581  0.92455694    -0.69000
O371        O  0.01343370  0.11138512  0.91353756    -0.68500
O372        O  0.99152964  0.08157075  0.82636578    -0.59800
O373        O  0.00417329  0.13851298  0.85443169    -0.72300
O374        O  0.00405496  0.05636235  0.88500722    -0.71100
Cu375      Cu  0.95417135  0.10128845  0.88204717     1.04600
Cu376      Cu  0.00488258  0.09700009  0.86921177     1.04300
C377        C  0.98093307  0.04445814  0.89584785     0.95200
C378        C  0.98159555  0.15486652  0.85725975     0.94400
C379        C  0.96410414  0.07828867  0.81994585     0.86500
C380        C  0.99251562  0.11651334  0.93290139     0.92800
O381        O  0.66766985  0.43364387  0.65242403    -0.71000
O382        O  0.58197330  0.43307049  0.62262895    -0.71900
O383        O  0.63783486  0.44240622  0.59490317    -0.60500
O384        O  0.61043888  0.42094435  0.68035214    -0.69000
O385        O  0.60508364  0.46799948  0.69318844    -0.68500
O386        O  0.63484724  0.49009767  0.60605672    -0.59800
O387        O  0.57984093  0.48065762  0.63457955    -0.72300
O388        O  0.66200561  0.48071269  0.66512679    -0.71100
Cu389      Cu  0.62476573  0.43076480  0.63739048     1.04600
Cu390      Cu  0.62048577  0.48144967  0.65036574     1.06700
C391        C  0.67835959  0.45814320  0.66222538     0.95200
C392        C  0.56793046  0.45755872  0.62367825     0.94400
C393        C  0.63996623  0.46922084  0.58663329     0.86500
C394        C  0.60181217  0.44055910  0.69954375     0.92800
O395        O  0.54178492  0.30777366  0.86708819    -0.71000
O396        O  0.54237528  0.39347384  0.89688213    -0.71900
O397        O  0.53303297  0.33761502  0.92460786    -0.60500
O398        O  0.55449465  0.36500457  0.83915893    -0.69000
O399        O  0.50744227  0.37036694  0.82632224    -0.68500
O400        O  0.48534282  0.34061556  0.91346111    -0.59800
O401        O  0.49479092  0.39561619  0.88492929    -0.72300
O402        O  0.49471771  0.31344603  0.85439056    -0.71100
Cu403      Cu  0.54467301  0.35067949  0.88212021     1.04600
Cu404      Cu  0.49399040  0.35496947  0.86914733     1.04300
C405        C  0.51728365  0.29708743  0.85729030     0.95200
C406        C  0.51789018  0.40752134  0.89583412     0.94400
C407        C  0.50622031  0.33549661  0.93288337     0.86500
C408        C  0.53488205  0.37363528  0.81996754     0.92800
O409        O  0.48525129  0.11148623  0.10607098    -0.71000
O410        O  0.50729641  0.08173018  0.19322543    -0.71900
O411        O  0.49463857  0.13865692  0.16514358    -0.60500
O412        O  0.49463910  0.05648046  0.13461676    -0.69000
O413        O  0.54222675  0.05857616  0.12268701    -0.68500
O414        O  0.54171680  0.14427377  0.15248364    -0.59800
O415        O  0.55435710  0.08703506  0.18041238    -0.72300
O416        O  0.53294784  0.11444222  0.09495874    -0.71100
Cu417      Cu  0.49387255  0.09713205  0.15039165     1.04600
Cu418      Cu  0.54456313  0.10136684  0.13745056     1.04300
C419        C  0.50613983  0.11658200  0.08666368     0.95200
C420        C  0.53473185  0.07843381  0.19959418     0.94400
C421        C  0.51722389  0.15498798  0.16226568     0.86500
C422        C  0.51772979  0.04455303  0.12372199     0.92800
O423        O  0.63486918  0.46216441  0.41350614    -0.71000
O424        O  0.60504436  0.98415065  0.32636740    -0.71900
O425        O  0.66198646  0.47143374  0.35440201    -0.60500
O426        O  0.57984735  0.47162022  0.38500811    -0.69000
O427        O  0.58203222  0.01922472  0.39687051    -0.68500
O428        O  0.66769676  0.01851726  0.36701909    -0.59800
O429        O  0.61045069  0.03122254  0.33911313    -0.72300
O430        O  0.63790869  0.00986945  0.42457854    -0.71100
Cu431      Cu  0.62047768  0.47075838  0.36919571     1.04600
Cu432      Cu  0.62481181  0.02145992  0.38207865     1.04300
C433        C  0.64001690  0.48306442  0.43289308     0.95200
C434        C  0.60178249  0.01158286  0.31996972     0.94400
C435        C  0.67835937  0.99399420  0.35725230     0.86500
C436        C  0.56796535  0.99475075  0.39586964     0.92800
O437        O  0.86408222  0.49029996  0.41346977    -0.71000
O438        O  0.89384639  0.46830219  0.32630291    -0.71900
O439        O  0.83691729  0.48093738  0.35438896    -0.60500
O440        O  0.91908979  0.48093748  0.38491874    -0.69000
O441        O  0.91700406  0.43334054  0.39681823    -0.68500
O442        O  0.83130775  0.43385071  0.36702592    -0.59800
O443        O  0.88854547  0.42123265  0.33908995    -0.72300
O444        O  0.86113865  0.44259489  0.42455427    -0.71100
Cu445      Cu  0.87843991  0.48170372  0.36914350     1.04600
Cu446      Cu  0.87421423  0.43100377  0.38205614     1.04300
C447        C  0.85899063  0.46939889  0.43286478     0.95200
C448        C  0.89714694  0.44086894  0.31992037     0.94400
C449        C  0.82059015  0.45834757  0.35725608     0.86500
C450        C  0.93102239  0.45784155  0.39579655     0.92800
O451        O  0.99143153  0.37054598  0.19315404    -0.71000
O452        O  0.01338219  0.34070028  0.10601096    -0.71900
O453        O  0.00394363  0.39573064  0.13450334    -0.60500
O454        O  0.00413338  0.31359414  0.16512615    -0.69000
O455        O  0.95704690  0.30788530  0.15252832    -0.68500
O456        O  0.95633630  0.39354891  0.12266146    -0.59800
O457        O  0.96567428  0.33766470  0.09496083    -0.72300
O458        O  0.94435687  0.36513978  0.18042756    -0.71100
Cu459      Cu  0.00480691  0.35510180  0.15032339     1.04600
Cu460      Cu  0.95410234  0.35077008  0.13746207     1.04300
C461        C  0.96400270  0.37381214  0.19956066     0.95200
C462        C  0.99247421  0.33555087  0.08663459     0.94400
C463        C  0.98081107  0.40761389  0.12364974     0.86500
C464        C  0.98157182  0.29722168  0.16228689     0.92800
C465        C  0.91234476  0.43117418  0.29190923    -0.16500
C466        C  0.92638333  0.41928804  0.27124733     0.07500
C467        C  0.94247646  0.40314192  0.24820399     0.09400
C468        C  0.95432606  0.38905823  0.22755193    -0.17400
C469        C  0.53813772  0.49201452  0.40636005    -0.16500
C470        C  0.51353849  0.48300212  0.41092402     0.07500
C471        C  0.98542907  0.46969106  0.41089658     0.09400
C472        C  0.96084475  0.46064856  0.40629714    -0.17400
C473        C  0.78941452  0.46208274  0.35144313    -0.16500
C474        C  0.76405217  0.47031581  0.34930854     0.07500
C475        C  0.73487969  0.48194256  0.34930204     0.09400
C476        C  0.70952484  0.49019879  0.35143021    -0.17400
C477        C  0.98354636  0.43744133  0.11315446    -0.16500
C478        C  0.99256072  0.46203985  0.10858707     0.07500
C479        C  0.50587558  0.49014825  0.10861341     0.09400
C480        C  0.51492099  0.01473187  0.11321547    -0.17400
C481        C  0.98536786  0.26605515  0.16810988    -0.16500
C482        C  0.99362508  0.24069945  0.17023445     0.07500
C483        C  0.50525322  0.21152653  0.17022134     0.09400
C484        C  0.51348737  0.18616410  0.16808158    -0.17400
C485        C  0.58654709  0.02126916  0.29197586    -0.16500
C486        C  0.57247034  0.03312021  0.27131910     0.07500
C487        C  0.55632819  0.04920977  0.24826996     0.09400
C488        C  0.54443968  0.06324293  0.22760477    -0.17400
C489        C  0.50024873  0.32878668  0.96513058    -0.16500
C490        C  0.49915417  0.32613618  0.99320162     0.07500
C491        C  0.99947579  0.32614582  0.02631116     0.09400
C492        C  0.99839885  0.32881449  0.05438182    -0.17400
C493        C  0.64669769  0.47519886  0.55439282    -0.16500
C494        C  0.64937299  0.47631314  0.52632550     0.07500
C495        C  0.64939150  0.47602207  0.49321625     0.09400
C496        C  0.64674096  0.47712277  0.46514490    -0.17400
C497        C  0.58662139  0.43083688  0.72755050    -0.16500
C498        C  0.57258577  0.41896531  0.74822308     0.07500
C499        C  0.55648154  0.40286327  0.77129158     0.09400
C500        C  0.54460689  0.38882768  0.79196238    -0.17400
C501        C  0.99842248  0.12324357  0.96515957    -0.16500
C502        C  0.99947333  0.12591176  0.99323081     0.07500
C503        C  0.49911714  0.12592817  0.02633852     0.09400
C504        C  0.50018647  0.12328657  0.05441105    -0.17400
C505        C  0.98369671  0.01463108  0.90634006    -0.16500
C506        C  0.99273002  0.49003928  0.91091934     0.07500
C507        C  0.50605794  0.46193471  0.91091675     0.09400
C508        C  0.51510296  0.43734696  0.90633297    -0.17400
C509        C  0.98536643  0.18603639  0.85144526    -0.16500
C510        C  0.99361970  0.21139231  0.84932608     0.07500
C511        C  0.50525939  0.24055907  0.84934290     0.09400
C512        C  0.51351425  0.26591404  0.85148128    -0.17400
C513        C  0.85224709  0.47702181  0.55437526    -0.16500
C514        C  0.84960512  0.47599047  0.52629999     0.07500
C515        C  0.84961741  0.47637657  0.49319197     0.09400
C516        C  0.85227649  0.47533168  0.46511990    -0.17400
C517        C  0.96081472  0.49174240  0.61322411    -0.16500
C518        C  0.98540568  0.48271359  0.60863598     0.07500
C519        C  0.51351220  0.46939113  0.60862140     0.09400
C520        C  0.53810253  0.46034863  0.61319028    -0.17400
C521        C  0.70953186  0.46190684  0.66803661    -0.16500
C522        C  0.73488644  0.47015948  0.67017824     0.07500
C523        C  0.76405223  0.48179877  0.67020001     0.09400
C524        C  0.78940731  0.49005316  0.66808586    -0.17400
C525        C  0.91237533  0.02098841  0.72761380    -0.16500
C526        C  0.92644779  0.03285497  0.74826380     0.07500
C527        C  0.94257495  0.04898372  0.77129271     0.09400
C528        C  0.95443976  0.06305664  0.79194359    -0.17400
O529        O  0.83126123  0.51834841  0.65254456    -0.71000
O530        O  0.91694078  0.51899081  0.62273319    -0.71900
O531        O  0.86107058  0.50971586  0.59499303    -0.60500
O532        O  0.88850123  0.53098126  0.68048242    -0.69000
O533        O  0.89386500  0.48389736  0.69318862    -0.68500
O534        O  0.86407472  0.96199853  0.60600380    -0.59800
O535        O  0.91908550  0.97137809  0.63455286    -0.72300
O536        O  0.83693099  0.97124971  0.66510642    -0.71100
Cu537      Cu  0.87415529  0.52126032  0.63750719     1.04600
Cu538      Cu  0.87844609  0.97054579  0.65033704     1.04300
C539        C  0.82057658  0.49382732  0.66227800     0.95200
C540        C  0.93098846  0.49450306  0.62371615     0.94400
C541        C  0.85895287  0.98292076  0.58664119     0.86500
C542        C  0.89714455  0.51132385  0.69961091     0.92800
O543        O  0.95644527  0.55850439  0.89683125    -0.71000
O544        O  0.95707765  0.64418115  0.86699884    -0.71900
O545        O  0.94444834  0.58693200  0.83907533    -0.60500
O546        O  0.96572000  0.61438575  0.92455695    -0.69000
O547        O  0.01343367  0.61138507  0.91353756    -0.68500
O548        O  0.99152958  0.58157070  0.82636578    -0.59800
O549        O  0.00417324  0.63851290  0.85443165    -0.72300
O550        O  0.00405489  0.55636232  0.88500724    -0.71100
Cu551      Cu  0.95417132  0.60128839  0.88204719     1.04600
Cu552      Cu  0.00488252  0.59700003  0.86921177     1.04300
C553        C  0.98093301  0.54445807  0.89584788     0.95200
C554        C  0.98159551  0.65486646  0.85725975     0.94400
C555        C  0.96410409  0.57828863  0.81994590     0.86500
C556        C  0.99251558  0.61651329  0.93290137     0.92800
O557        O  0.66766988  0.93364391  0.65242403    -0.71000
O558        O  0.58197335  0.93307046  0.62262891    -0.71900
O559        O  0.63783488  0.94240628  0.59490320    -0.60500
O560        O  0.61043889  0.92094437  0.68035208    -0.69000
O561        O  0.60508363  0.96799949  0.69318844    -0.68500
O562        O  0.63484725  0.99009775  0.60605670    -0.59800
O563        O  0.57984090  0.98065759  0.63457949    -0.72300
O564        O  0.66200566  0.98071272  0.66512681    -0.71100
Cu565      Cu  0.62476578  0.93076482  0.63739047     1.04600
Cu566      Cu  0.62048577  0.98144969  0.65036573     1.06700
C567        C  0.67835952  0.95814321  0.66222537     0.95200
C568        C  0.56793044  0.95755876  0.62367824     0.94400
C569        C  0.63996628  0.96922093  0.58663332     0.86500
C570        C  0.60181213  0.94055908  0.69954372     0.92800
O571        O  0.54178503  0.80777372  0.86708817    -0.71000
O572        O  0.54237522  0.89347388  0.89688218    -0.71900
O573        O  0.53303293  0.83761504  0.92460785    -0.60500
O574        O  0.55449468  0.86500467  0.83915900    -0.69000
O575        O  0.50744230  0.87036703  0.82632227    -0.68500
O576        O  0.48534280  0.84061560  0.91346106    -0.59800
O577        O  0.49479088  0.89561629  0.88492930    -0.72300
O578        O  0.49471780  0.81344610  0.85439056    -0.71100
Cu579      Cu  0.54467302  0.85067952  0.88212021     1.04600
Cu580      Cu  0.49399042  0.85496953  0.86914733     1.04300
C581        C  0.51728368  0.79708744  0.85729026     0.95200
C582        C  0.51789018  0.90752134  0.89583413     0.94400
C583        C  0.50622034  0.83549666  0.93288336     0.86500
C584        C  0.53488208  0.87363539  0.81996755     0.92800
O585        O  0.48525136  0.61148619  0.10607094    -0.71000
O586        O  0.50729642  0.58173014  0.19322543    -0.71900
O587        O  0.49463856  0.63865690  0.16514355    -0.60500
O588        O  0.49463907  0.55648044  0.13461680    -0.69000
O589        O  0.54222669  0.55857620  0.12268694    -0.68500
O590        O  0.54171678  0.64427385  0.15248369    -0.59800
O591        O  0.55435710  0.58703511  0.18041235    -0.72300
O592        O  0.53294792  0.61444236  0.09495876    -0.71100
Cu593      Cu  0.49387253  0.59713202  0.15039165     1.04600
Cu594      Cu  0.54456312  0.60136691  0.13745056     1.04300
C595        C  0.50613982  0.61658204  0.08666370     0.95200
C596        C  0.53473183  0.57843378  0.19959415     0.94400
C597        C  0.51722384  0.65498792  0.16226568     0.86500
C598        C  0.51772974  0.54455307  0.12372197     0.92800
O599        O  0.63486914  0.96216440  0.41350612    -0.71000
O600        O  0.60504435  0.48415052  0.32636746    -0.71900
O601        O  0.66198648  0.97143370  0.35440201    -0.60500
O602        O  0.57984728  0.97162024  0.38500806    -0.69000
O603        O  0.58203224  0.51922473  0.39687052    -0.68500
O604        O  0.66769675  0.51851731  0.36701909    -0.59800
O605        O  0.61045074  0.53122244  0.33911312    -0.72300
O606        O  0.63790880  0.50986948  0.42457852    -0.71100
Cu607      Cu  0.62047767  0.97075840  0.36919568     1.04600
Cu608      Cu  0.62481184  0.52145994  0.38207865     1.04300
C609        C  0.64001682  0.98306436  0.43289308     0.95200
C610        C  0.60178247  0.51158286  0.31996973     0.94400
C611        C  0.67835942  0.49399416  0.35725224     0.86500
C612        C  0.56796532  0.49475073  0.39586968     0.92800
O613        O  0.86408217  0.99029994  0.41346974    -0.71000
O614        O  0.89384635  0.96830213  0.32630291    -0.71900
O615        O  0.83691730  0.98093739  0.35438894    -0.60500
O616        O  0.91908971  0.98093742  0.38491872    -0.69000
O617        O  0.91700402  0.93334046  0.39681822    -0.68500
O618        O  0.83130765  0.93385074  0.36702590    -0.59800
O619        O  0.88854539  0.92123259  0.33908993    -0.72300
O620        O  0.86113867  0.94259488  0.42455428    -0.71100
Cu621      Cu  0.87843989  0.98170368  0.36914348     1.04600
Cu622      Cu  0.87421419  0.93100374  0.38205612     1.04300
C623        C  0.85899060  0.96939891  0.43286476     0.95200
C624        C  0.89714692  0.94086884  0.31992032     0.94400
C625        C  0.82059018  0.95834755  0.35725610     0.86500
C626        C  0.93102241  0.95784150  0.39579654     0.92800
O627        O  0.99143151  0.87054603  0.19315401    -0.71000
O628        O  0.01338217  0.84070036  0.10601096    -0.71900
O629        O  0.00394356  0.89573067  0.13450339    -0.60500
O630        O  0.00413340  0.81359418  0.16512611    -0.69000
O631        O  0.95704692  0.80788529  0.15252834    -0.68500
O632        O  0.95633623  0.89354885  0.12266146    -0.59800
O633        O  0.96567427  0.83766462  0.09496086    -0.72300
O634        O  0.94435685  0.86513974  0.18042759    -0.71100
Cu635      Cu  0.00480687  0.85510185  0.15032338     1.04600
Cu636      Cu  0.95410231  0.85077003  0.13746210     1.04300
C637        C  0.96400266  0.87381217  0.19956069     0.95200
C638        C  0.99247417  0.83555089  0.08663460     0.94400
C639        C  0.98081102  0.90761395  0.12364973     0.86500
C640        C  0.98157182  0.79722172  0.16228688     0.92800
C641        C  0.91234474  0.93117416  0.29190932    -0.16500
C642        C  0.92638344  0.91928806  0.27124727     0.07500
C643        C  0.94247649  0.90314201  0.24820405     0.09400
C644        C  0.95432607  0.88905821  0.22755190    -0.17400
C645        C  0.53813758  0.99201451  0.40636008    -0.16500
C646        C  0.51353857  0.98300215  0.41092400     0.07500
C647        C  0.98542908  0.96969110  0.41089657     0.09400
C648        C  0.96084466  0.96064855  0.40629705    -0.17400
C649        C  0.78941442  0.96208287  0.35144309    -0.16500
C650        C  0.76405230  0.97031583  0.34930854     0.07500
C651        C  0.73487960  0.98194270  0.34930204     0.09400
C652        C  0.70952496  0.99019879  0.35143021    -0.17400
C653        C  0.98354624  0.93744119  0.11315445    -0.16500
C654        C  0.99256074  0.96203991  0.10858704     0.07500
C655        C  0.50587557  0.99014818  0.10861344     0.09400
C656        C  0.51492098  0.51473187  0.11321542    -0.17400
C657        C  0.98536792  0.76605515  0.16810989    -0.16500
C658        C  0.99362511  0.74069954  0.17023444     0.07500
C659        C  0.50525318  0.71152645  0.17022134     0.09400
C660        C  0.51348725  0.68616417  0.16808162    -0.17400
C661        C  0.58654707  0.52126906  0.29197594    -0.16500
C662        C  0.57247033  0.53312018  0.27131907     0.07500
C663        C  0.55632824  0.54920976  0.24826997     0.09400
C664        C  0.54443973  0.56324292  0.22760473    -0.17400
C665        C  0.50024866  0.82878673  0.96513058    -0.16500
C666        C  0.49915420  0.82613618  0.99320158     0.07500
C667        C  0.99947575  0.82614586  0.02631116     0.09400
C668        C  0.99839886  0.82881459  0.05438180    -0.17400
C669        C  0.64669784  0.97519887  0.55439283    -0.16500
C670        C  0.64937307  0.97631314  0.52632552     0.07500
C671        C  0.64939151  0.97602201  0.49321625     0.09400
C672        C  0.64674091  0.97712272  0.46514491    -0.17400
C673        C  0.58662144  0.93083684  0.72755045    -0.16500
C674        C  0.57258587  0.91896524  0.74822311     0.07500
C675        C  0.55648154  0.90286330  0.77129154     0.09400
C676        C  0.54460692  0.88882770  0.79196240    -0.17400
C677        C  0.99842245  0.62324351  0.96515960    -0.16500
C678        C  0.99947338  0.62591170  0.99323079     0.07500
C679        C  0.49911718  0.62592815  0.02633853     0.09400
C680        C  0.50018652  0.62328654  0.05441103    -0.17400
C681        C  0.98369665  0.51463109  0.90634009    -0.16500
C682        C  0.99273006  0.99003936  0.91091935     0.07500
C683        C  0.50605792  0.96193467  0.91091679     0.09400
C684        C  0.51510293  0.93734706  0.90633302    -0.17400
C685        C  0.98536642  0.68603637  0.85144525    -0.16500
C686        C  0.99361964  0.71139231  0.84932607     0.07500
C687        C  0.50525942  0.74055907  0.84934295     0.09400
C688        C  0.51351434  0.76591413  0.85148133    -0.17400
C689        C  0.85224720  0.97702183  0.55437524    -0.16500
C690        C  0.84960517  0.97599057  0.52629994     0.07500
C691        C  0.84961744  0.97637661  0.49319197     0.09400
C692        C  0.85227644  0.97533169  0.46511986    -0.17400
C693        C  0.96081470  0.99174241  0.61322411    -0.16500
C694        C  0.98540570  0.98271351  0.60863597     0.07500
C695        C  0.51351217  0.96939115  0.60862138     0.09400
C696        C  0.53810252  0.96034857  0.61319027    -0.17400
C697        C  0.70953198  0.96190681  0.66803662    -0.16500
C698        C  0.73488626  0.97015942  0.67017821     0.07500
C699        C  0.76405236  0.98179881  0.67020003     0.09400
C700        C  0.78940716  0.99005310  0.66808592    -0.17400
C701        C  0.91237538  0.52098840  0.72761378    -0.16500
C702        C  0.92644776  0.53285497  0.74826375     0.07500
C703        C  0.94257496  0.54898373  0.77129271     0.09400
C704        C  0.95443971  0.56305663  0.79194354    -0.17400
loop_ 
_geom_bond_atom_site_label_1 
_geom_bond_atom_site_label_2 
_geom_bond_distance 
_geom_bond_site_symmetry_2 
_ccdc_geom_bond_type 
O1           Cu9   2.056       .  S
O1           C11   1.284   1_545  A
O2           Cu9   2.046       .  S
O2           C12   1.282   1_545  A
O3           Cu9   1.986       .  S
O3          C189   1.272   1_545  A
O4           Cu9   2.002       .  S
O4           C14   1.274       .  A
O5         Cu186   2.056       .  S
O5           C14   1.284   1_565  A
O6          Cu10   2.045       .  S
O6           C13   1.283       .  A
O7          Cu10   1.966       .  S
O7          C188   1.269       .  A
O8          Cu10   1.989       .  S
O8          C187   1.272       .  A
Cu9        Cu186   2.375   1_545  S
Cu10        O181   2.056       .  S
Cu10       Cu185   2.375       .  S
C11         O184   1.272       .  A
C11         C348   1.447       .  S
C12         O183   1.269       .  A
C12         C341   1.432       .  S
C13         O179   1.272       .  A
C13         C161   1.441       .  S
C14         C173   1.453       .  S
O15         Cu23   2.046       .  S
O15          C25   1.282       .  A
O16         Cu23   2.056       .  S
O16          C26   1.284       .  A
O17         Cu23   2.002       .  S
O17          C27   1.274       .  A
O18         Cu23   1.986       .  S
O18          C28   1.272       .  A
O19         Cu24   2.045       .  S
O19          C28   1.282       .  A
O20         Cu24   2.056       .  S
O20          C27   1.284       .  A
O21         Cu24   1.989       .  S
O21          C26   1.272       .  A
O22         Cu24   1.966       .  S
O22          C25   1.269       .  A
Cu23        Cu24   2.375       .  S
C25         C153   1.432       .  S
C26         C157   1.447       .  S
C27         C176   1.453       .  S
C28         C149   1.441       .  S
O29         Cu37   2.056       .  S
O29          C39   1.284       .  A
O30         Cu37   2.046       .  S
O30          C40   1.282       .  A
O31         Cu37   1.986       .  S
O31          C41   1.272       .  A
O32         Cu37   2.003       .  S
O32          C42   1.274       .  A
O33         Cu38   2.057       .  S
O33          C42   1.284       .  A
O34         Cu38   2.046       .  S
O34          C41   1.283       .  A
O35         Cu38   1.966       .  S
O35          C40   1.269       .  A
O36         Cu38   1.989       .  S
O36          C39   1.272       .  A
Cu37        Cu38   2.375       .  S
C39         C169   1.447       .  S
C40         C168   1.432       .  S
C41         C141   1.441       .  S
C42         C145   1.453       .  S
O43         Cu51   2.056       .  S
O43          C53   1.284       .  A
O44         Cu51   2.046       .  S
O44          C54   1.282       .  A
O45         Cu51   1.986       .  S
O45          C55   1.272       .  A
O46         Cu51   2.003       .  S
O46          C56   1.274       .  A
O47         Cu52   2.057   1_455  S
O47          C56   1.284       .  A
O48         Cu52   2.046       .  S
O48          C55   1.283   1_655  A
O49         Cu52   1.966       .  S
O49          C54   1.269   1_655  A
O50         Cu52   1.989       .  S
O50          C53   1.272   1_655  A
Cu51        Cu52   2.375   1_455  S
C53         C160   1.447       .  S
C54         C156   1.432       .  S
C55         C137   1.441       .  S
C56         C148   1.453       .  S
O57         Cu65   2.046       .  S
O57          C67   1.283   1_655  A
O58         Cu65   2.056   1_455  S
O58          C68   1.284       .  A
O59         Cu65   1.989       .  S
O59          C69   1.272   1_655  A
O60         Cu65   1.966       .  S
O60          C70   1.269   1_655  A
O61         Cu66   2.046       .  S
O61          C70   1.282       .  A
O62         Cu66   2.056       .  S
O62          C69   1.284       .  A
O63         Cu66   2.002       .  S
O63          C68   1.274       .  A
O64         Cu66   1.986       .  S
O64          C67   1.272       .  A
Cu65        Cu66   2.375   1_655  S
C67         C152   1.441       .  S
C68         C136   1.453       .  S
C69         C132   1.447       .  S
C70         C128   1.432       .  S
O71         Cu79   2.045       .  S
O71          C81   1.282       .  A
O72        Cu255   2.056       .  S
O72          C82   1.284   1_565  A
O73         Cu79   1.989       .  S
O73         C259   1.272       .  A
O74         Cu79   1.966       .  S
O74         C260   1.269       .  A
O75         Cu80   2.046       .  S
O75          C84   1.282   1_545  A
O76         Cu80   2.056       .  S
O76          C83   1.284   1_545  A
O77         Cu80   2.003       .  S
O77          C82   1.274       .  A
O78         Cu80   1.987       .  S
O78         C257   1.272   1_545  A
Cu79        O248   2.056       .  S
Cu79       Cu256   2.375       .  S
Cu80       Cu255   2.375   1_545  S
C81         O254   1.272       .  A
C81         C144   1.441       .  S
C82         C133   1.453       .  S
C83         O249   1.272       .  A
C83         C300   1.447       .  S
C84         O250   1.269       .  A
C84         C293   1.432       .  S
O85         Cu93   2.046       .  S
O85          C95   1.283       .  A
O86         Cu93   2.056       .  S
O86          C96   1.284       .  A
O87         Cu93   1.989       .  S
O87          C97   1.272       .  A
O88         Cu93   1.966       .  S
O88          C98   1.269       .  A
O89         Cu94   2.046       .  S
O89          C98   1.282       .  A
O90         Cu94   2.056       .  S
O90          C97   1.284       .  A
O91         Cu94   2.002       .  S
O91          C96   1.274       .  A
O92         Cu94   1.986       .  S
O92          C95   1.272       .  A
Cu93        Cu94   2.375       .  S
C95         C164   1.441       .  S
C96         C113   1.453       .  S
C97         C121   1.447       .  S
C98         C120   1.432       .  S
O99        Cu107   2.056       .  S
O99         C109   1.284       .  A
O100       Cu107   2.045       .  S
O100        C110   1.282       .  A
O101       Cu107   1.966       .  S
O101        C111   1.269       .  A
O102       Cu107   1.989       .  S
O102        C112   1.272       .  A
O103       Cu108   2.056       .  S
O103        C112   1.284       .  A
O104       Cu108   2.046       .  S
O104        C111   1.282       .  A
O105       Cu108   1.986       .  S
O105        C110   1.272       .  A
O106       Cu108   2.003       .  S
O106        C109   1.274       .  A
Cu107      Cu108   2.375       .  S
C109        C116   1.453       .  S
C110        C140   1.441       .  S
C111        C125   1.432       .  S
C112        C129   1.447       .  S
C113        C114   1.217       .  T
C114        C115   1.430       .  S
C115        C116   1.217       .  T
C117        C260   1.432       .  S
C117        C118   1.206       .  T
C118        C471   1.412   1_455  S
C119        C120   1.206       .  T
C119        C470   1.412       .  S
C121        C122   1.214       .  T
C122        C123   1.426       .  S
C123        C124   1.214       .  T
C124        C259   1.447       .  S
C125        C126   1.206       .  T
C126        C479   1.412       .  S
C127        C304   1.206       .  T
C127        C478   1.412   1_455  S
C128        C303   1.206   1_545  T
C129        C130   1.214       .  T
C130        C483   1.426       .  S
C131        C132   1.214       .  T
C131        C482   1.426   1_455  S
C133        C134   1.217       .  T
C134        C135   1.430       .  S
C135        C136   1.217       .  T
C137        C138   1.210   1_455  T
C138        C491   1.419   1_556  S
C139        C140   1.210       .  T
C139        C490   1.419   1_554  S
C141        C142   1.210       .  T
C142        C143   1.419       .  S
C143        C144   1.210       .  T
C145        C146   1.217       .  T
C146        C147   1.431       .  S
C147        C148   1.217       .  T
C149        C150   1.210       .  T
C150        C503   1.419   1_556  S
C151        C152   1.210   1_655  T
C151        C502   1.419   1_554  S
C153        C330   1.206   1_545  T
C154        C329   1.206       .  T
C154        C507   1.412       .  S
C155        C156   1.206       .  T
C155        C506   1.412   1_455  S
C157        C158   1.214       .  T
C158        C511   1.426       .  S
C159        C160   1.214       .  T
C159        C510   1.426   1_455  S
C161        C162   1.210       .  T
C162        C163   1.419       .  S
C163        C164   1.210       .  T
C165        C188   1.432       .  S
C165        C166   1.206       .  T
C166        C519   1.412       .  S
C167        C168   1.206       .  T
C167        C518   1.412   1_455  S
C169        C170   1.214       .  T
C170        C171   1.426       .  S
C171        C172   1.214       .  T
C172        C187   1.447       .  S
C173        C174   1.217       .  T
C174        C175   1.430       .  S
C175        C176   1.217       .  T
O177       Cu185   2.056       .  S
O177        C187   1.284       .  A
O178       Cu185   2.046       .  S
O178        C188   1.282       .  A
O179       Cu185   1.986       .  S
O180       Cu185   2.002       .  S
O180        C190   1.274       .  A
O181        C190   1.284       .  A
O182       Cu186   2.045       .  S
O182        C189   1.283       .  A
O183       Cu186   1.966       .  S
O184       Cu186   1.989       .  S
C189        C337   1.441       .  S
C190        C349   1.453       .  S
O191       Cu199   2.046       .  S
O191        C201   1.282       .  A
O192       Cu199   2.056       .  S
O192        C202   1.284       .  A
O193       Cu199   2.002       .  S
O193        C203   1.274       .  A
O194       Cu199   1.986       .  S
O194        C204   1.272       .  A
O195       Cu200   2.045       .  S
O195        C204   1.282       .  A
O196       Cu200   2.056       .  S
O196        C203   1.284       .  A
O197       Cu200   1.989       .  S
O197        C202   1.272       .  A
O198       Cu200   1.966       .  S
O198        C201   1.269       .  A
Cu199      Cu200   2.375       .  S
C201        C329   1.432       .  S
C202        C333   1.447       .  S
C203        C352   1.453       .  S
C204        C325   1.441       .  S
O205       Cu213   2.056       .  S
O205        C215   1.284       .  A
O206       Cu213   2.046       .  S
O206        C216   1.282       .  A
O207       Cu213   1.986       .  S
O207        C217   1.272       .  A
O208       Cu213   2.003       .  S
O208        C218   1.274       .  A
O209       Cu214   2.057       .  S
O209        C218   1.284       .  A
O210       Cu214   2.046       .  S
O210        C217   1.283       .  A
O211       Cu214   1.966       .  S
O211        C216   1.269       .  A
O212       Cu214   1.989       .  S
O212        C215   1.272       .  A
Cu213      Cu214   2.375       .  S
C215        C345   1.447       .  S
C216        C344   1.432       .  S
C217        C317   1.441       .  S
C218        C321   1.453       .  S
O219       Cu227   2.056       .  S
O219        C229   1.284       .  A
O220       Cu227   2.046       .  S
O220        C230   1.282       .  A
O221       Cu227   1.986       .  S
O221        C231   1.272       .  A
O222       Cu227   2.003       .  S
O222        C232   1.274       .  A
O223       Cu228   2.057   1_455  S
O223        C232   1.284       .  A
O224       Cu228   2.046       .  S
O224        C231   1.283   1_655  A
O225       Cu228   1.966       .  S
O225        C230   1.269   1_655  A
O226       Cu228   1.989       .  S
O226        C229   1.272   1_655  A
Cu227      Cu228   2.375   1_455  S
C229        C336   1.447       .  S
C230        C332   1.432       .  S
C231        C313   1.441       .  S
C232        C324   1.453       .  S
O233       Cu241   2.046       .  S
O233        C243   1.283   1_655  A
O234       Cu241   2.056   1_455  S
O234        C244   1.284       .  A
O235       Cu241   1.989       .  S
O235        C245   1.272   1_655  A
O236       Cu241   1.966       .  S
O236        C246   1.269   1_655  A
O237       Cu242   2.046       .  S
O237        C246   1.282       .  A
O238       Cu242   2.056       .  S
O238        C245   1.284       .  A
O239       Cu242   2.002       .  S
O239        C244   1.274       .  A
O240       Cu242   1.986       .  S
O240        C243   1.272       .  A
Cu241      Cu242   2.375   1_655  S
C243        C328   1.441       .  S
C244        C312   1.453       .  S
C245        C308   1.447       .  S
C246        C304   1.432       .  S
O247       Cu255   2.045       .  S
O247        C257   1.282       .  A
O248        C258   1.284       .  A
O249       Cu255   1.989       .  S
O250       Cu255   1.966       .  S
O251       Cu256   2.046       .  S
O251        C260   1.282       .  A
O252       Cu256   2.056       .  S
O252        C259   1.284       .  A
O253       Cu256   2.003       .  S
O253        C258   1.274       .  A
O254       Cu256   1.987       .  S
C257        C320   1.441       .  S
C258        C309   1.453       .  S
O261       Cu269   2.046       .  S
O261        C271   1.283       .  A
O262       Cu269   2.056       .  S
O262        C272   1.284       .  A
O263       Cu269   1.989       .  S
O263        C273   1.272       .  A
O264       Cu269   1.966       .  S
O264        C274   1.269       .  A
O265       Cu270   2.046       .  S
O265        C274   1.282       .  A
O266       Cu270   2.056       .  S
O266        C273   1.284       .  A
O267       Cu270   2.002       .  S
O267        C272   1.274       .  A
O268       Cu270   1.986       .  S
O268        C271   1.272       .  A
Cu269      Cu270   2.375       .  S
C271        C340   1.441       .  S
C272        C289   1.453       .  S
C273        C297   1.447       .  S
C274        C296   1.432       .  S
O275       Cu283   2.056       .  S
O275        C285   1.284       .  A
O276       Cu283   2.045       .  S
O276        C286   1.282       .  A
O277       Cu283   1.966       .  S
O277        C287   1.269       .  A
O278       Cu283   1.989       .  S
O278        C288   1.272       .  A
O279       Cu284   2.056       .  S
O279        C288   1.284       .  A
O280       Cu284   2.046       .  S
O280        C287   1.282       .  A
O281       Cu284   1.986       .  S
O281        C286   1.272       .  A
O282       Cu284   2.003       .  S
O282        C285   1.274       .  A
Cu283      Cu284   2.375       .  S
C285        C292   1.453       .  S
C286        C316   1.441       .  S
C287        C301   1.432       .  S
C288        C305   1.447       .  S
C289        C290   1.217       .  T
C290        C291   1.430       .  S
C291        C292   1.217       .  T
C293        C294   1.206       .  T
C294        C647   1.412   1_455  S
C295        C296   1.206       .  T
C295        C646   1.412       .  S
C297        C298   1.214       .  T
C298        C299   1.426       .  S
C299        C300   1.214       .  T
C301        C302   1.206       .  T
C302        C655   1.412       .  S
C303        C654   1.412   1_455  S
C305        C306   1.214       .  T
C306        C659   1.426       .  S
C307        C308   1.214       .  T
C307        C658   1.426   1_455  S
C309        C310   1.217       .  T
C310        C311   1.430       .  S
C311        C312   1.217       .  T
C313        C314   1.210   1_455  T
C314        C667   1.419   1_556  S
C315        C316   1.210       .  T
C315        C666   1.419   1_554  S
C317        C318   1.210       .  T
C318        C319   1.419       .  S
C319        C320   1.210       .  T
C321        C322   1.217       .  T
C322        C323   1.431       .  S
C323        C324   1.217       .  T
C325        C326   1.210       .  T
C326        C679   1.419   1_556  S
C327        C328   1.210   1_655  T
C327        C678   1.419   1_554  S
C330        C683   1.412       .  S
C331        C332   1.206       .  T
C331        C682   1.412   1_455  S
C333        C334   1.214       .  T
C334        C687   1.426       .  S
C335        C336   1.214       .  T
C335        C686   1.426   1_455  S
C337        C338   1.210       .  T
C338        C339   1.419       .  S
C339        C340   1.210       .  T
C341        C342   1.206       .  T
C342        C695   1.412       .  S
C343        C344   1.206       .  T
C343        C694   1.412   1_455  S
C345        C346   1.214       .  T
C346        C347   1.426       .  S
C347        C348   1.214       .  T
C349        C350   1.217       .  T
C350        C351   1.430       .  S
C351        C352   1.217       .  T
O353       Cu361   2.056       .  S
O353        C363   1.284   1_545  A
O354       Cu361   2.046       .  S
O354        C364   1.282   1_545  A
O355       Cu361   1.986       .  S
O355        C541   1.272   1_545  A
O356       Cu361   2.002       .  S
O356        C366   1.274       .  A
O357       Cu538   2.056       .  S
O357        C366   1.284   1_565  A
O358       Cu362   2.045       .  S
O358        C365   1.283       .  A
O359       Cu362   1.966       .  S
O359        C540   1.269       .  A
O360       Cu362   1.989       .  S
O360        C539   1.272       .  A
Cu361      Cu538   2.375   1_545  S
Cu362       O533   2.056       .  S
Cu362      Cu537   2.375       .  S
C363        O536   1.272       .  A
C363        C700   1.447       .  S
C364        O535   1.269       .  A
C364        C693   1.432       .  S
C365        O531   1.272       .  A
C365        C513   1.441       .  S
C366        C525   1.453       .  S
O367       Cu375   2.046       .  S
O367        C377   1.282       .  A
O368       Cu375   2.056       .  S
O368        C378   1.284       .  A
O369       Cu375   2.002       .  S
O369        C379   1.274       .  A
O370       Cu375   1.986       .  S
O370        C380   1.272       .  A
O371       Cu376   2.045       .  S
O371        C380   1.282   1_455  A
O372       Cu376   2.056   1_655  S
O372        C379   1.284       .  A
O373       Cu376   1.989       .  S
O373        C378   1.272   1_455  A
O374       Cu376   1.966       .  S
O374        C377   1.269   1_455  A
Cu375      Cu376   2.375   1_655  S
C377        C505   1.432       .  S
C378        C509   1.447       .  S
C379        C528   1.453       .  S
C380        C501   1.441       .  S
O381       Cu389   2.056       .  S
O381        C391   1.284       .  A
O382       Cu389   2.046       .  S
O382        C392   1.282       .  A
O383       Cu389   1.986       .  S
O383        C393   1.272       .  A
O384       Cu389   2.003       .  S
O384        C394   1.274       .  A
O385       Cu390   2.057       .  S
O385        C394   1.284       .  A
O386       Cu390   2.046       .  S
O386        C393   1.283       .  A
O387       Cu390   1.966       .  S
O387        C392   1.269       .  A
O388       Cu390   1.989       .  S
O388        C391   1.272       .  A
Cu389      Cu390   2.375       .  S
C391        C521   1.447       .  S
C392        C520   1.432       .  S
C393        C493   1.441       .  S
C394        C497   1.453       .  S
O395       Cu403   2.056       .  S
O395        C405   1.284       .  A
O396       Cu403   2.046       .  S
O396        C406   1.282       .  A
O397       Cu403   1.986       .  S
O397        C407   1.272       .  A
O398       Cu403   2.003       .  S
O398        C408   1.274       .  A
O399       Cu404   2.057       .  S
O399        C408   1.284       .  A
O400       Cu404   2.046       .  S
O400        C407   1.283       .  A
O401       Cu404   1.966       .  S
O401        C406   1.269       .  A
O402       Cu404   1.989       .  S
O402        C405   1.272       .  A
Cu403      Cu404   2.375       .  S
C405        C512   1.447       .  S
C406        C508   1.432       .  S
C407        C489   1.441       .  S
C408        C500   1.453       .  S
O409       Cu417   2.046       .  S
O409        C419   1.283       .  A
O410       Cu417   2.056       .  S
O410        C420   1.284       .  A
O411       Cu417   1.989       .  S
O411        C421   1.272       .  A
O412       Cu417   1.966       .  S
O412        C422   1.269       .  A
O413       Cu418   2.046       .  S
O413        C422   1.282       .  A
O414       Cu418   2.056       .  S
O414        C421   1.284       .  A
O415       Cu418   2.002       .  S
O415        C420   1.274       .  A
O416       Cu418   1.986       .  S
O416        C419   1.272       .  A
Cu417      Cu418   2.375       .  S
C419        C504   1.441       .  S
C420        C488   1.453       .  S
C421        C484   1.447       .  S
C422        C480   1.432       .  S
O423       Cu431   2.045       .  S
O423        C433   1.282       .  A
O424       Cu607   2.056       .  S
O424        C434   1.284   1_565  A
O425       Cu431   1.989       .  S
O425        C611   1.272       .  A
O426       Cu431   1.966       .  S
O426        C612   1.269       .  A
O427       Cu432   2.046       .  S
O427        C436   1.282   1_545  A
O428       Cu432   2.056       .  S
O428        C435   1.284   1_545  A
O429       Cu432   2.003       .  S
O429        C434   1.274       .  A
O430       Cu432   1.987       .  S
O430        C609   1.272   1_545  A
Cu431       O600   2.056       .  S
Cu431      Cu608   2.375       .  S
Cu432      Cu607   2.375   1_545  S
C433        O606   1.272       .  A
C433        C496   1.441       .  S
C434        C485   1.453       .  S
C435        O601   1.272       .  A
C435        C652   1.447       .  S
C436        O602   1.269       .  A
C436        C645   1.432       .  S
O437       Cu445   2.046       .  S
O437        C447   1.283       .  A
O438       Cu445   2.056       .  S
O438        C448   1.284       .  A
O439       Cu445   1.989       .  S
O439        C449   1.272       .  A
O440       Cu445   1.966       .  S
O440        C450   1.269       .  A
O441       Cu446   2.046       .  S
O441        C450   1.282       .  A
O442       Cu446   2.056       .  S
O442        C449   1.284       .  A
O443       Cu446   2.002       .  S
O443        C448   1.274       .  A
O444       Cu446   1.986       .  S
O444        C447   1.272       .  A
Cu445      Cu446   2.375       .  S
C447        C516   1.441       .  S
C448        C465   1.453       .  S
C449        C473   1.447       .  S
C450        C472   1.432       .  S
O451       Cu459   2.056   1_655  S
O451        C461   1.284       .  A
O452       Cu459   2.045       .  S
O452        C462   1.282   1_455  A
O453       Cu459   1.966       .  S
O453        C463   1.269   1_455  A
O454       Cu459   1.989       .  S
O454        C464   1.272   1_455  A
O455       Cu460   2.056       .  S
O455        C464   1.284       .  A
O456       Cu460   2.046       .  S
O456        C463   1.282       .  A
O457       Cu460   1.986       .  S
O457        C462   1.272       .  A
O458       Cu460   2.003       .  S
O458        C461   1.274       .  A
Cu459      Cu460   2.375   1_455  S
C461        C468   1.453       .  S
C462        C492   1.441       .  S
C463        C477   1.432       .  S
C464        C481   1.447       .  S
C465        C466   1.217       .  T
C466        C467   1.430       .  S
C467        C468   1.217       .  T
C469        C612   1.432       .  S
C469        C470   1.206       .  T
C471        C472   1.206       .  T
C473        C474   1.214       .  T
C474        C475   1.426       .  S
C475        C476   1.214       .  T
C476        C611   1.447       .  S
C477        C478   1.206       .  T
C479        C656   1.206       .  T
C480        C655   1.206   1_545  T
C481        C482   1.214       .  T
C483        C484   1.214       .  T
C485        C486   1.217       .  T
C486        C487   1.430       .  S
C487        C488   1.217       .  T
C489        C490   1.210       .  T
C491        C492   1.210       .  T
C493        C494   1.210       .  T
C494        C495   1.419       .  S
C495        C496   1.210       .  T
C497        C498   1.217       .  T
C498        C499   1.431       .  S
C499        C500   1.217       .  T
C501        C502   1.210       .  T
C503        C504   1.210       .  T
C505        C682   1.206   1_545  T
C506        C681   1.206       .  T
C507        C508   1.206       .  T
C509        C510   1.214       .  T
C511        C512   1.214       .  T
C513        C514   1.210       .  T
C514        C515   1.419       .  S
C515        C516   1.210       .  T
C517        C540   1.432       .  S
C517        C518   1.206       .  T
C519        C520   1.206       .  T
C521        C522   1.214       .  T
C522        C523   1.426       .  S
C523        C524   1.214       .  T
C524        C539   1.447       .  S
C525        C526   1.217       .  T
C526        C527   1.430       .  S
C527        C528   1.217       .  T
O529       Cu537   2.056       .  S
O529        C539   1.284       .  A
O530       Cu537   2.046       .  S
O530        C540   1.282       .  A
O531       Cu537   1.986       .  S
O532       Cu537   2.002       .  S
O532        C542   1.274       .  A
O533        C542   1.284       .  A
O534       Cu538   2.045       .  S
O534        C541   1.283       .  A
O535       Cu538   1.966       .  S
O536       Cu538   1.989       .  S
C541        C689   1.441       .  S
C542        C701   1.453       .  S
O543       Cu551   2.046       .  S
O543        C553   1.282       .  A
O544       Cu551   2.056       .  S
O544        C554   1.284       .  A
O545       Cu551   2.002       .  S
O545        C555   1.274       .  A
O546       Cu551   1.986       .  S
O546        C556   1.272       .  A
O547       Cu552   2.045       .  S
O547        C556   1.282   1_455  A
O548       Cu552   2.056   1_655  S
O548        C555   1.284       .  A
O549       Cu552   1.989       .  S
O549        C554   1.272   1_455  A
O550       Cu552   1.966       .  S
O550        C553   1.269   1_455  A
Cu551      Cu552   2.375   1_655  S
C553        C681   1.432       .  S
C554        C685   1.447       .  S
C555        C704   1.453       .  S
C556        C677   1.441       .  S
O557       Cu565   2.056       .  S
O557        C567   1.284       .  A
O558       Cu565   2.046       .  S
O558        C568   1.282       .  A
O559       Cu565   1.986       .  S
O559        C569   1.272       .  A
O560       Cu565   2.003       .  S
O560        C570   1.274       .  A
O561       Cu566   2.057       .  S
O561        C570   1.284       .  A
O562       Cu566   2.046       .  S
O562        C569   1.283       .  A
O563       Cu566   1.966       .  S
O563        C568   1.269       .  A
O564       Cu566   1.989       .  S
O564        C567   1.272       .  A
Cu565      Cu566   2.375       .  S
C567        C697   1.447       .  S
C568        C696   1.432       .  S
C569        C669   1.441       .  S
C570        C673   1.453       .  S
O571       Cu579   2.056       .  S
O571        C581   1.284       .  A
O572       Cu579   2.046       .  S
O572        C582   1.282       .  A
O573       Cu579   1.986       .  S
O573        C583   1.272       .  A
O574       Cu579   2.003       .  S
O574        C584   1.274       .  A
O575       Cu580   2.057       .  S
O575        C584   1.284       .  A
O576       Cu580   2.046       .  S
O576        C583   1.283       .  A
O577       Cu580   1.966       .  S
O577        C582   1.269       .  A
O578       Cu580   1.989       .  S
O578        C581   1.272       .  A
Cu579      Cu580   2.375       .  S
C581        C688   1.447       .  S
C582        C684   1.432       .  S
C583        C665   1.441       .  S
C584        C676   1.453       .  S
O585       Cu593   2.046       .  S
O585        C595   1.283       .  A
O586       Cu593   2.056       .  S
O586        C596   1.284       .  A
O587       Cu593   1.989       .  S
O587        C597   1.272       .  A
O588       Cu593   1.966       .  S
O588        C598   1.269       .  A
O589       Cu594   2.046       .  S
O589        C598   1.282       .  A
O590       Cu594   2.056       .  S
O590        C597   1.284       .  A
O591       Cu594   2.002       .  S
O591        C596   1.274       .  A
O592       Cu594   1.986       .  S
O592        C595   1.272       .  A
Cu593      Cu594   2.375       .  S
C595        C680   1.441       .  S
C596        C664   1.453       .  S
C597        C660   1.447       .  S
C598        C656   1.432       .  S
O599       Cu607   2.045       .  S
O599        C609   1.282       .  A
O600        C610   1.284       .  A
O601       Cu607   1.989       .  S
O602       Cu607   1.966       .  S
O603       Cu608   2.046       .  S
O603        C612   1.282       .  A
O604       Cu608   2.056       .  S
O604        C611   1.284       .  A
O605       Cu608   2.003       .  S
O605        C610   1.274       .  A
O606       Cu608   1.987       .  S
C609        C672   1.441       .  S
C610        C661   1.453       .  S
O613       Cu621   2.046       .  S
O613        C623   1.283       .  A
O614       Cu621   2.056       .  S
O614        C624   1.284       .  A
O615       Cu621   1.989       .  S
O615        C625   1.272       .  A
O616       Cu621   1.966       .  S
O616        C626   1.269       .  A
O617       Cu622   2.046       .  S
O617        C626   1.282       .  A
O618       Cu622   2.056       .  S
O618        C625   1.284       .  A
O619       Cu622   2.002       .  S
O619        C624   1.274       .  A
O620       Cu622   1.986       .  S
O620        C623   1.272       .  A
Cu621      Cu622   2.375       .  S
C623        C692   1.441       .  S
C624        C641   1.453       .  S
C625        C649   1.447       .  S
C626        C648   1.432       .  S
O627       Cu635   2.056   1_655  S
O627        C637   1.284       .  A
O628       Cu635   2.045       .  S
O628        C638   1.282   1_455  A
O629       Cu635   1.966       .  S
O629        C639   1.269   1_455  A
O630       Cu635   1.989       .  S
O630        C640   1.272   1_455  A
O631       Cu636   2.056       .  S
O631        C640   1.284       .  A
O632       Cu636   2.046       .  S
O632        C639   1.282       .  A
O633       Cu636   1.986       .  S
O633        C638   1.272       .  A
O634       Cu636   2.003       .  S
O634        C637   1.274       .  A
Cu635      Cu636   2.375   1_455  S
C637        C644   1.453       .  S
C638        C668   1.441       .  S
C639        C653   1.432       .  S
C640        C657   1.447       .  S
C641        C642   1.217       .  T
C642        C643   1.430       .  S
C643        C644   1.217       .  T
C645        C646   1.206       .  T
C647        C648   1.206       .  T
C649        C650   1.214       .  T
C650        C651   1.426       .  S
C651        C652   1.214       .  T
C653        C654   1.206       .  T
C657        C658   1.214       .  T
C659        C660   1.214       .  T
C661        C662   1.217       .  T
C662        C663   1.430       .  S
C663        C664   1.217       .  T
C665        C666   1.210       .  T
C667        C668   1.210       .  T
C669        C670   1.210       .  T
C670        C671   1.419       .  S
C671        C672   1.210       .  T
C673        C674   1.217       .  T
C674        C675   1.431       .  S
C675        C676   1.217       .  T
C677        C678   1.210       .  T
C679        C680   1.210       .  T
C683        C684   1.206       .  T
C685        C686   1.214       .  T
C687        C688   1.214       .  T
C689        C690   1.210       .  T
C690        C691   1.419       .  S
C691        C692   1.210       .  T
C693        C694   1.206       .  T
C695        C696   1.206       .  T
C697        C698   1.214       .  T
C698        C699   1.426       .  S
C699        C700   1.214       .  T
C701        C702   1.217       .  T
C702        C703   1.430       .  S
C703        C704   1.217       .  T
