geometry optimzed in LAMMPS
_audit_creation_date              2020-12-01 
_audit_creation_method            'lammps2cif' 
_symmetry_space_group_name_H-M    'P1' 
_symmetry_Int_Tables_number       1 
_symmetry_cell_setting            triclinic 
loop_ 
_symmetry_equiv_pos_as_xyz 
  x,y,z 
_cell_length_a                    68.88150602 
_cell_length_b                    69.1658371652421 
_cell_length_c                    42.73892156860399 
_cell_angle_alpha                 90.5495379902936 
_cell_angle_beta                  89.3348102811571 
_cell_angle_gamma                 121.8930973459671 
loop_ 
_atom_site_label 
_atom_site_type_symbol 
_atom_site_fract_x 
_atom_site_fract_y 
_atom_site_fract_z 
_atom_site_charge 
O1          O  0.47288549  0.90502332  0.02150591    -0.58100
C2          C  0.48560209  0.91322217  0.42218650     0.74500
O3          O  0.53083681  0.96730462  0.49070800    -0.59300
C4          C  0.48562591  0.90937550  0.04508643     0.74500
C5          C  0.53313508  0.90649360  0.47611111     0.76900
Cd6        Cd  0.50496733  0.92533397  0.48390475     1.37500
O7          O  0.47295996  0.90454466  0.44622211    -0.58100
O8          O  0.51158356  0.89450367  0.47917382    -0.56900
C9          C  0.51463566  0.97099268  0.49253481     0.76800
O10         O  0.54233206  0.92796803  0.47782569    -0.59300
O11         O  0.50659403  0.92742375  0.42700353    -0.57800
O12         O  0.50691298  0.91951912  0.03981904    -0.57800
O13         O  0.49464566  0.95385919  0.48934540    -0.56900
O14         O  0.57168086  0.12473853  0.06026526    -0.58100
C15         C  0.55767686  0.12245158  0.46103723     0.74500
O16         O  0.51325884  0.06425306  0.01714116    -0.59300
C17         C  0.55874870  0.11783881  0.08428577     0.74500
C18         C  0.51260060  0.12641980  0.03142161     0.76900
Cd19       Cd  0.53947202  0.10635490  0.02261591     1.37500
O20         O  0.57088643  0.12753199  0.48426918    -0.58100
O21         O  0.53422123  0.13798181  0.02910044    -0.56900
C22         C  0.52938809  0.06046088  0.01513927     0.76800
O23         O  0.50282421  0.10494077  0.02834289    -0.59300
O24         O  0.53643119  0.11128914  0.46686172    -0.57800
O25         O  0.53746204  0.10575322  0.07945590    -0.57800
O26         O  0.54945702  0.07761566  0.01742259    -0.56900
O27         O  0.62622039  0.10870095  0.27755569    -0.58100
C28         C  0.55684342  0.06267758  0.26801513     0.74500
O29         O  0.57660008  0.12791763  0.30940220    -0.59300
C30         C  0.63956735  0.13020659  0.27829151     0.74500
C31         C  0.58675037  0.12378373  0.21154608     0.76900
Cd32       Cd  0.59141591  0.11024008  0.27296300     1.37500
O33         O  0.57783181  0.06923051  0.26915317    -0.58100
O34         O  0.59973559  0.11646692  0.21706860    -0.56900
C35         C  0.58380690  0.12337068  0.33371510     0.76800
O36         O  0.57720613  0.12677550  0.23504868    -0.59300
O37         O  0.55215365  0.07796306  0.27069150    -0.57800
O38         O  0.63050435  0.14196906  0.27522420    -0.57800
O39         O  0.59461028  0.11341928  0.32955597    -0.56900
O40         O  0.46527833  0.96252209  0.24154733    -0.58100
C41         C  0.40382524  0.90088066  0.22723133     0.74500
O42         O  0.46691956  0.90443232  0.19663384    -0.59300
C43         C  0.48632999  0.96929402  0.24258865     0.74500
C44         C  0.45698946  0.90711248  0.29530179     0.76900
Cd45       Cd  0.45215716  0.92162982  0.23452658     1.37500
O46         O  0.41708086  0.92240020  0.22697032    -0.58100
O47         O  0.44377649  0.91428026  0.29046138    -0.56900
C48         C  0.46010112  0.90987108  0.17273789     0.76800
O49         O  0.46655594  0.90460183  0.27139943    -0.59300
O50         O  0.41291713  0.88940328  0.23270008    -0.57800
O51         O  0.49127514  0.95428759  0.23841486    -0.57800
O52         O  0.44996303  0.92038717  0.17780616    -0.56900
O53         O  0.47450019  0.57454287  0.18595372    -0.58100
C54         C  0.48879366  0.58877937  0.28442398     0.74500
O55         O  0.53271599  0.57561475  0.22989577    -0.59300
C56         C  0.48745175  0.57980035  0.16206537     0.74500
C57         C  0.53331324  0.63861715  0.21445226     0.76900
Cd58       Cd  0.50682006  0.59035704  0.22331739     1.37500
O59         O  0.47557645  0.58027932  0.26107347    -0.58100
O60         O  0.51172070  0.62726831  0.21701868    -0.56900
C61         C  0.51637100  0.55506166  0.23321259     0.76800
O62         O  0.54325321  0.62755158  0.21655310    -0.59300
O63         O  0.51005668  0.59901013  0.27889132    -0.57800
O64         O  0.50863880  0.58909631  0.16697125    -0.57800
O65         O  0.49638739  0.55131462  0.23094487    -0.56900
O66         O  0.56494450  0.45019776  0.21398367    -0.58100
C67         C  0.56074529  0.45155519  0.31669628     0.74500
O68         O  0.51297128  0.45979624  0.25797179    -0.59300
C69         C  0.55001429  0.44597163  0.19334641     0.74500
C70         C  0.51019051  0.39546478  0.26521921     0.76900
Cd71       Cd  0.53793214  0.44375712  0.25804515     1.37500
O72         O  0.57248676  0.45979868  0.29178997    -0.58100
O73         O  0.53102211  0.40597927  0.25687382    -0.56900
C74         C  0.52954186  0.48036430  0.25606896     0.76800
O75         O  0.50119351  0.40736077  0.26887241    -0.59300
O76         O  0.53924175  0.44012697  0.31385952    -0.57800
O77         O  0.53020634  0.43991236  0.20317063    -0.57800
O78         O  0.54941597  0.48364796  0.25706263    -0.56900
O79         O  0.57985641  0.46133286  0.04329135    -0.58100
C80         C  0.58761393  0.47505056  0.44354755     0.74500
O81         O  0.57680153  0.51995752  0.99838969    -0.59300
C82         C  0.57282710  0.46933982  0.06425666     0.74500
C83         C  0.63611496  0.51915819  0.02112763     0.76900
Cd84       Cd  0.58874271  0.49216659  0.00527291     1.37500
O85         O  0.57679160  0.46170207  0.46611450    -0.58100
O86         O  0.62520656  0.49775454  0.01791607    -0.56900
C87         C  0.55594831  0.50478772  0.99347225     0.76800
O88         O  0.62504567  0.52883600  0.01644323    -0.59300
O89         O  0.60015632  0.49598971  0.45018773    -0.57800
O90         O  0.57244942  0.48685908  0.05731656    -0.57800
O91         O  0.55068169  0.48427961  0.99437922    -0.56900
O92         O  0.46994966  0.57462709  0.43594378    -0.58100
C93         C  0.46039489  0.55771516  0.03387900     0.74500
O94         O  0.41646313  0.50541637  0.46418832    -0.59300
C95         C  0.46350012  0.56261089  0.41116776     0.74500
C96         C  0.48705157  0.52688733  0.47299582     0.76900
Cd97       Cd  0.45442883  0.54082441  0.47088946     1.37500
O98         O  0.47085172  0.57114234  0.01124115    -0.58100
O99         O  0.49269745  0.54740066  0.47047743    -0.56900
C100        C  0.40581447  0.51584161  0.46406937     0.76800
O101        O  0.46575036  0.51209226  0.47330094    -0.59300
O102        O  0.44624942  0.53712110  0.02691440    -0.57800
O103        O  0.45340126  0.54128097  0.41451786    -0.57800
O104        O  0.41765478  0.53720063  0.46838359    -0.56900
O105        O  0.92570504  0.40999950  0.02179400    -0.58100
C106        C  0.97023256  0.47981525  0.00833157     0.74500
O107        O  0.90456890  0.45683871  0.48110652    -0.59300
C108        C  0.90421064  0.39650089  0.02436037     0.74500
C109        C  0.91349122  0.45232589  0.08026937     0.76900
Cd110      Cd  0.92340937  0.44420086  0.01763224     1.37500
O111        O  0.96452399  0.45912811  0.00913005    -0.58100
O112        O  0.92517441  0.44348311  0.07440153    -0.56900
C113        C  0.90782295  0.44786512  0.45717330     0.76800
O114        O  0.90581806  0.45736920  0.05690348    -0.59300
O115        O  0.95450042  0.48372454  0.01324054    -0.57800
O116        O  0.89201096  0.40518134  0.02240767    -0.57800
O117        O  0.91622289  0.43573741  0.46193935    -0.56900
O118        O  0.06857688  0.57374336  0.48096473    -0.58100
C119        C  0.13102546  0.63658140  0.47144597     0.74500
O120        O  0.13228026  0.58349635  0.02290857    -0.59300
C121        C  0.06281040  0.55307069  0.48315847     0.74500
C122        C  0.12282113  0.57889947  0.42064494     0.76900
Cd123      Cd  0.11017608  0.58866128  0.48049754     1.37500
O124        O  0.10945345  0.62387553  0.47420372    -0.58100
O125        O  0.11268701  0.58961916  0.42380821    -0.56900
C126        C  0.12074729  0.58540846  0.04480908     0.76800
O127        O  0.12731801  0.57221986  0.44560575    -0.59300
O128        O  0.14239324  0.62711118  0.47443940    -0.57800
O129        O  0.07882824  0.54921042  0.48232284    -0.57800
O130        O  0.10612001  0.59008025  0.03659095    -0.71300
O131        O  0.13551594  0.56698722  0.19266785    -0.58100
C132        C  0.12747421  0.55407853  0.29382152     0.74500
O133        O  0.07015617  0.50996625  0.23940846    -0.59300
C134        C  0.12014070  0.55809448  0.17188539     0.74500
C135        C  0.13137377  0.50887202  0.21740887     0.76900
Cd136      Cd  0.11213024  0.53624336  0.23185127     1.37500
O137        O  0.13220157  0.56731784  0.27072721    -0.58100
O138        O  0.14285642  0.53035258  0.21972916    -0.56900
C139        C  0.06635324  0.52589288  0.24409679     0.76800
O140        O  0.10998518  0.49907575  0.22251680    -0.59300
O141        O  0.11773471  0.53305754  0.28757557    -0.57800
O142        O  0.10180765  0.53981736  0.17910880    -0.57800
O143        O  0.08352350  0.54602295  0.24267380    -0.56900
O144        O  0.90743969  0.46478342  0.30643053    -0.58100
C145        C  0.91478709  0.47886962  0.20815129     0.74500
O146        O  0.92946642  0.53373622  0.27389696    -0.59300
C147        C  0.91416235  0.47704080  0.33096523     0.74500
C148        C  0.97545589  0.50889272  0.26619814     0.76900
Cd149      Cd  0.92863848  0.49746382  0.27011145     1.37500
O150        O  0.91053781  0.46603420  0.23156225    -0.58100
O151        O  0.95844363  0.48870043  0.26701050    -0.56900
C152        C  0.90784503  0.52372960  0.27653526     0.76800
O153        O  0.97109303  0.52456277  0.26833194    -0.59300
O154        O  0.92408957  0.49993344  0.21379617    -0.57800
O155        O  0.92742396  0.49825519  0.32708318    -0.57800
O156        O  0.89652901  0.50219934  0.27450471    -0.56900
O157        O  0.24305948  0.79764786  0.22382776    -0.58100
C158        C  0.25567706  0.81200923  0.12472170     0.74500
O159        O  0.24675495  0.85739792  0.17983183    -0.59300
C160        C  0.24959091  0.81050730  0.24781511     0.74500
C161        C  0.30789319  0.85529651  0.19649932     0.76900
Cd162      Cd  0.25966944  0.83005976  0.18654634     1.37500
O163        O  0.24599865  0.79889009  0.14791160    -0.58100
O164        O  0.29625095  0.83381058  0.19347234    -0.56900
C165        C  0.22564389  0.84191318  0.17984160     0.76800
O166        O  0.29727310  0.86561702  0.19332081    -0.59300
O167        O  0.26860653  0.83301471  0.13071731    -0.57800
O168        O  0.26022514  0.83173168  0.24301512    -0.57800
O169        O  0.22085335  0.82181124  0.18419801    -0.56900
O170        O  0.13199346  0.90046614  0.10814747    -0.58100
C171        C  0.12197263  0.88877065  0.20656145     0.74500
O172        O  0.08135822  0.83265578  0.13998249    -0.59300
C173        C  0.12617912  0.88724034  0.08462029     0.74500
C174        C  0.15330774  0.85869127  0.15525349     0.76900
Cd175      Cd  0.11829696  0.86911605  0.14640194     1.37500
O176        O  0.13211666  0.90132022  0.18303285    -0.58100
O177        O  0.15773356  0.87865058  0.15067204    -0.56900
C178        C  0.06979138  0.84214303  0.13952018     0.76800
O179        O  0.13231901  0.84291139  0.15467841    -0.59300
O180        O  0.10890631  0.86764909  0.20149320    -0.57800
O181        O  0.11746437  0.86629528  0.09011233    -0.57800
O182        O  0.08072873  0.86353386  0.14350899    -0.56900
O183        O  0.23949711  0.79503354  0.47316171    -0.58100
C184        C  0.22440714  0.78439159  0.37542523     0.74500
O185        O  0.16943938  0.74445749  0.44483436    -0.59300
C186        C  0.22706569  0.78886784  0.49764755     0.74500
C187        C  0.19548120  0.81553182  0.43085072     0.76900
Cd188      Cd  0.20638938  0.78086485  0.43710642     1.37500
O189        O  0.23760113  0.79408362  0.39849140    -0.58100
O190        O  0.21561454  0.82004680  0.43476373    -0.56900
C191        C  0.17866769  0.73266500  0.44405890     0.76800
O192        O  0.17976333  0.79459464  0.43107448    -0.59300
O193        O  0.20326218  0.77196671  0.38146446    -0.57800
O194        O  0.20577479  0.77949813  0.49369175    -0.57800
O195        O  0.20000785  0.74326528  0.43880539    -0.56900
O196        O  0.13511164  0.90764853  0.35756583    -0.58100
C197        C  0.14730031  0.91455790  0.45672951     0.74500
O198        O  0.19388700  0.90822782  0.40533886    -0.59300
C199        C  0.14818613  0.91207787  0.33397978     0.74500
C200        C  0.19191764  0.96918510  0.38949044     0.76900
Cd201      Cd  0.16655598  0.92074019  0.39568922     1.37500
O202        O  0.13461004  0.90387159  0.43356953    -0.58100
O203        O  0.17042090  0.95753286  0.39348376    -0.56900
C204        C  0.17844734  0.88716452  0.40475681     0.76800
O205        O  0.20219209  0.95837233  0.38946312    -0.59300
O206        O  0.16802439  0.92929209  0.45084050    -0.57800
O207        O  0.16906893  0.91978131  0.33938369    -0.57800
O208        O  0.15847303  0.88223299  0.39832100    -0.56900
O209        O  0.90501324  0.79137427  0.38992537    -0.58100
C210        C  0.89134913  0.78571473  0.29073988     0.74500
O211        O  0.84567609  0.73021477  0.34427429    -0.59300
C212        C  0.89217440  0.78394788  0.41401757     0.74500
C213        C  0.84739211  0.79340441  0.36024761     0.76900
Cd214      Cd  0.87277919  0.77179685  0.35259333     1.37500
O215        O  0.90431215  0.78952397  0.31390139    -0.58100
O216        O  0.86883724  0.80429420  0.35572280    -0.56900
C217        C  0.86119169  0.72553084  0.34529430     0.76800
O218        O  0.83703934  0.77177414  0.36002224    -0.59300
O219        O  0.87033413  0.77713711  0.29677010    -0.57800
O220        O  0.87092007  0.77115008  0.40930726    -0.57800
O221        O  0.88115389  0.74188046  0.35132624    -0.56900
O222        O  0.80056335  0.56860811  0.35110248    -0.58100
C223        C  0.81104336  0.57603471  0.25182801     0.74500
O224        O  0.85955238  0.63076825  0.32071947    -0.59300
C225        C  0.81371956  0.57391210  0.37442845     0.74500
C226        C  0.85984185  0.56982901  0.30351298     0.76900
Cd227      Cd  0.83220291  0.58907200  0.31254828     1.37500
O228        O  0.79878171  0.57072903  0.27642010    -0.58100
O229        O  0.83866875  0.55805112  0.30999440    -0.56900
C230        C  0.84415235  0.63558083  0.31980076     0.76800
O231        O  0.86892757  0.59128937  0.30240246    -0.59300
O232        O  0.83244784  0.58698933  0.25568708    -0.57800
O233        O  0.83494217  0.58460437  0.36860491    -0.57800
O234        O  0.82411498  0.61923973  0.31418888    -0.56900
O235        O  0.96091855  0.77284948  0.10846363    -0.58100
C236        C  0.89067280  0.72506338  0.09322914     0.74500
O237        O  0.91125639  0.79056534  0.13890689    -0.59300
C238        C  0.97341924  0.79437156  0.11099148     0.74500
C239        C  0.92032168  0.78721607  0.04047238     0.76900
Cd240      Cd  0.92518996  0.77255604  0.10121111     1.37500
O241        O  0.91167523  0.73153643  0.09178773    -0.58100
O242        O  0.93337759  0.77981432  0.04500041    -0.56900
C243        C  0.91580617  0.78301511  0.16288799     0.76800
O244        O  0.91085532  0.78965279  0.06453731    -0.59300
O245        O  0.88628082  0.74025071  0.09945675    -0.57800
O246        O  0.96368911  0.80543026  0.10721355    -0.57800
O247        O  0.92411369  0.77074821  0.15799095    -0.56900
O248        O  0.74505495  0.58738537  0.05359024    -0.58100
C249        C  0.81618401  0.63299472  0.06910239     0.74500
O250        O  0.79109315  0.56702981  0.10149437    -0.59300
C251        C  0.73174175  0.56586014  0.05354220     0.74500
C252        C  0.78848101  0.57464763  0.50228141     0.76900
Cd253      Cd  0.77980358  0.58606763  0.06333093     1.37500
O254        O  0.79551098  0.62687863  0.07413313    -0.58100
O255        O  0.77881499  0.58568793  0.50698629    -0.56900
C256        C  0.78291779  0.57171963  0.12508567     0.76800
O257        O  0.79428442  0.56828019  0.02634683    -0.59300
O258        O  0.81965127  0.61763768  0.05998822    -0.57800
O259        O  0.74069974  0.55430816  0.05928055    -0.57800
O260        O  0.77198849  0.58132727  0.11960788    -0.56900
O261        O  0.80646296  0.90005228  0.43802609    -0.58100
C262        C  0.80150326  0.89617362  0.33602086     0.74500
O263        O  0.78184604  0.83513019  0.38383498    -0.59300
C264        C  0.79680793  0.88500790  0.45919062     0.74500
C265        C  0.73868445  0.86174529  0.39930871     0.76900
Cd266      Cd  0.78512955  0.87220418  0.39470434     1.37500
O267        O  0.80561976  0.90736185  0.36139369    -0.58100
O268        O  0.75575930  0.88183101  0.39679087    -0.56900
C269        C  0.80328025  0.84357771  0.38545405     0.76800
O270        O  0.74280334  0.84590312  0.39777269    -0.59300
O271        O  0.79003315  0.87470838  0.33827719    -0.57800
O272        O  0.78344372  0.86477891  0.44998537    -0.57800
O273        O  0.81550094  0.86456092  0.39224870    -0.56900
O274        O  0.58214704  0.80361567  0.39936975    -0.58100
C275        C  0.59265234  0.81643034  0.49864460     0.74500
O276        O  0.64474594  0.86167005  0.42876039    -0.59300
C277        C  0.58619721  0.81637747  0.37590244     0.74500
C278        C  0.58198324  0.86140128  0.44745088     0.76900
Cd279      Cd  0.60271323  0.83530618  0.43680212     1.37500
O280        O  0.58336598  0.80351621  0.47508718    -0.58100
O281        O  0.57070056  0.83993575  0.44434117    -0.56900
C282        C  0.64873314  0.84574540  0.42623502     0.76800
O283        O  0.60357247  0.87151149  0.44412027    -0.59300
O284        O  0.60652611  0.83733383  0.49315581    -0.57800
O285        O  0.59614146  0.83754671  0.38126738    -0.57800
O286        O  0.63175758  0.82570349  0.42963483    -0.56900
O287        O  0.60222581  0.74857277  0.19320518    -0.58100
C288        C  0.65024450  0.81775943  0.18376603     0.74500
O289        O  0.58683696  0.79965875  0.14992581    -0.59300
C290        C  0.58058093  0.73574200  0.19407343     0.74500
C291        C  0.58873721  0.79128391  0.24897974     0.76900
Cd292      Cd  0.60207724  0.78400296  0.18797436     1.37500
O293        O  0.64302434  0.79676867  0.18067462    -0.58100
O294        O  0.59977218  0.78155256  0.24478626    -0.56900
C295        C  0.58924201  0.78983974  0.12631552     0.76800
O296        O  0.58347011  0.79781920  0.22461522    -0.59300
O297        O  0.63538844  0.82264256  0.19023315    -0.57800
O298        O  0.56930012  0.74533243  0.19111830    -0.57800
O299        O  0.59591343  0.77633633  0.13170504    -0.56900
O300        O  0.78691979  0.95677270  0.13927935    -0.58100
C301        C  0.74411917  0.88904847  0.16052496     0.74500
O302        O  0.81475437  0.91989158  0.10680896    -0.59300
C303        C  0.80735620  0.96930972  0.12947851     0.74500
C304        C  0.80871954  0.92429368  0.20941131     0.76900
Cd305      Cd  0.79094070  0.92356947  0.14830299     1.37500
O306        O  0.75015018  0.90977154  0.15754602    -0.58100
O307        O  0.80108711  0.93680459  0.20270807    -0.56900
C308        C  0.79793995  0.90826665  0.08874293     0.76800
O309        O  0.81031534  0.91307388  0.18694400    -0.59300
O310        O  0.75970521  0.88464247  0.15771402    -0.57800
O311        O  0.81946572  0.96053871  0.12891744    -0.57800
O312        O  0.77849885  0.90313365  0.09894344    -0.56900
O313        O  0.46709027  0.22937577  0.10149389    -0.58100
C314        C  0.46057816  0.22312887  0.49836768     0.74500
O315        O  0.44390791  0.16487190  0.05041189    -0.59300
C316        C  0.45522398  0.21484813  0.12255306     0.74500
C317        C  0.40000528  0.19191484  0.06180278     0.76900
Cd318      Cd  0.44591254  0.20152541  0.05841437     1.37500
O319        O  0.46606156  0.23528426  0.02302867    -0.58100
O320        O  0.41732481  0.21197106  0.06081405    -0.56900
C321        C  0.46529183  0.17376975  0.05393894     0.76800
O322        O  0.40376004  0.17583290  0.05940591    -0.59300
O323        O  0.44888418  0.20177598  0.00207057    -0.57800
O324        O  0.44074598  0.19487140  0.11342239    -0.57800
O325        O  0.47687999  0.19484340  0.06041909    -0.56900
O326        O  0.24411656  0.13400426  0.06277308    -0.58100
C327        C  0.25242522  0.14531078  0.16185243     0.74500
O328        O  0.30625752  0.19175836  0.09130336    -0.59300
C329        C  0.24804857  0.14701677  0.03966461     0.74500
C330        C  0.24683363  0.19440021  0.11090166     0.76900
Cd331      Cd  0.26459180  0.16557830  0.10073634     1.37500
O332        O  0.24348545  0.13310464  0.13764426    -0.58100
O333        O  0.23432057  0.17307563  0.10665958    -0.56900
C334        C  0.31026844  0.17587852  0.08877720     0.76800
O335        O  0.26831482  0.20304818  0.10928352    -0.59300
O336        O  0.26714188  0.16616511  0.15743636    -0.57800
O337        O  0.25773758  0.16806891  0.04559660    -0.57800
O338        O  0.29351070  0.15587966  0.09332201    -0.56900
O339        O  0.30024925  0.12635056  0.34451259    -0.58100
C340        C  0.23731122  0.06508302  0.36109822     0.74500
O341        O  0.24146635  0.12779211  0.38779342    -0.59300
C342        C  0.30707324  0.14734101  0.34588404     0.74500
C343        C  0.24513674  0.11704582  0.28898877     0.76900
Cd344      Cd  0.25892399  0.11297495  0.35068251     1.37500
O345        O  0.25889690  0.07781702  0.35849335    -0.58100
O346        O  0.25279272  0.10438212  0.29468554    -0.56900
C347        C  0.24767629  0.12180751  0.41181538     0.76800
O348        O  0.24195865  0.12651353  0.31238403    -0.59300
O349        O  0.22586833  0.07439870  0.35698703    -0.57800
O350        O  0.29179965  0.15199500  0.35009390    -0.57800
O351        O  0.25860993  0.11205228  0.40706256    -0.56900
O352        O  0.44520157  0.28737320  0.30396394    -0.58100
C353        C  0.40122736  0.21903126  0.32441448     0.74500
O354        O  0.47113853  0.24829874  0.27036695    -0.59300
C355        C  0.46610526  0.30014517  0.29627935     0.74500
C356        C  0.46520270  0.25106877  0.37168486     0.76900
Cd357      Cd  0.44814545  0.25333023  0.31161153     1.37500
O358        O  0.40730428  0.23973858  0.32101830    -0.58100
O359        O  0.45850569  0.26456638  0.36633864    -0.56900
C360        C  0.45462866  0.23893689  0.25132132     0.76800
O361        O  0.46626150  0.24020117  0.34832755    -0.59300
O362        O  0.41677950  0.21458892  0.32162339    -0.57800
O363        O  0.47806401  0.29119623  0.29650424    -0.57800
O364        O  0.43577470  0.23596515  0.26067388    -0.56900
O365        O  0.79745820  0.23144191  0.35430519    -0.58100
C366        C  0.79439119  0.22164391  0.25460439     0.74500
O367        O  0.79772446  0.17361664  0.32219853    -0.59300
C368        C  0.78823280  0.21808112  0.37737214     0.74500
C369        C  0.73591141  0.17503600  0.30525318     0.76900
Cd370      Cd  0.78422308  0.20057614  0.31501422     1.37500
O371        O  0.80114806  0.23390620  0.27916812    -0.58100
O372        O  0.74741678  0.19642331  0.30933519    -0.56900
C373        C  0.81871877  0.18897336  0.31877257     0.76800
O374        O  0.74671419  0.16481096  0.30708903    -0.59300
O375        O  0.78313456  0.20028983  0.25845446    -0.57800
O376        O  0.77601006  0.19705983  0.37109785    -0.57800
O377        O  0.82306840  0.20870192  0.31261777    -0.56900
O378        O  0.91585436  0.13261774  0.38423903    -0.58100
C379        C  0.92353909  0.14409643  0.28630821     0.74500
O380        O  0.91413628  0.19009408  0.33539352    -0.59300
C381        C  0.92029849  0.14521047  0.40824173     0.74500
C382        C  0.97702373  0.19195311  0.35613876     0.76900
Cd383      Cd  0.92848476  0.16433643  0.34690680     1.37500
O384        O  0.91271026  0.13189177  0.30979391    -0.58100
O385        O  0.96624266  0.17050403  0.35291709    -0.56900
C386        C  0.89320652  0.17460089  0.33898070     0.76800
O387        O  0.96537314  0.20127016  0.35375444    -0.59300
O388        O  0.93795704  0.16491183  0.29165985    -0.57800
O389        O  0.92777653  0.16604787  0.40352993    -0.57800
O390        O  0.88919525  0.15536677  0.34742318    -0.56900
O391        O  0.80408863  0.23602759  0.02899909    -0.58100
C392        C  0.82073873  0.24986642  0.12749890     0.74500
O393        O  0.86472693  0.24033463  0.07034453    -0.59300
C394        C  0.81647280  0.24272778  0.50443365     0.74500
C395        C  0.86190061  0.30115202  0.05359470     0.76900
Cd396      Cd  0.83746283  0.25334120  0.06473317     1.37500
O397        O  0.80717086  0.24142812  0.10450748    -0.58100
O398        O  0.84058252  0.28941102  0.05907220    -0.56900
C399        C  0.84908607  0.21933472  0.07044225     0.76800
O400        O  0.87265195  0.29084258  0.05481548    -0.59300
O401        O  0.84190598  0.26128988  0.12108476    -0.57800
O402        O  0.83789789  0.25367629  0.00822636    -0.57800
O403        O  0.82888812  0.21463283  0.06647946    -0.56900
O404        O  0.90976824  0.12669212  0.05899921    -0.58100
C405        C  0.89603533  0.12011618  0.15870538     0.74500
O406        O  0.85087995  0.12633723  0.08936639    -0.59300
C407        C  0.89689830  0.11786636  0.03538668     0.74500
C408        C  0.85073042  0.06446311  0.10039264     0.76900
Cd409      Cd  0.87757022  0.11283553  0.09664464     1.37500
O410        O  0.90920486  0.12662139  0.13492963    -0.58100
O411        O  0.87214366  0.07558968  0.09564448    -0.56900
C412        C  0.86644220  0.14730114  0.09099005     0.76800
O413        O  0.84110639  0.07585244  0.10246670    -0.59300
O414        O  0.87484946  0.11041670  0.15345007    -0.57800
O415        O  0.87561002  0.10591721  0.04064216    -0.57800
O416        O  0.88644572  0.15183746  0.09623128    -0.56900
O417        O  0.24199358  0.46819558  0.14345955    -0.58100
C418        C  0.22915133  0.45880827  0.24256726     0.74500
O419        O  0.17227644  0.44280208  0.18872648    -0.59300
C420        C  0.22885294  0.46335142  0.12020343     0.74500
C421        C  0.20148096  0.40096165  0.17238461     0.76900
Cd422      Cd  0.21014377  0.44640427  0.18113616     1.37500
O423        O  0.24209468  0.46741791  0.21876435    -0.58100
O424        O  0.22114930  0.41797171  0.17812544    -0.56900
C425        C  0.18092103  0.46422048  0.18945502     0.76800
O426        O  0.18528588  0.40467079  0.17187259    -0.59300
O427        O  0.20820964  0.44459557  0.23743009    -0.57800
O428        O  0.20759536  0.45208543  0.12583673    -0.57800
O429        O  0.20238673  0.47658462  0.18558817    -0.56900
O430        O  0.14344623  0.24640471  0.17840517    -0.58100
C431        C  0.15677171  0.25316026  0.07897641     0.74500
O432        O  0.20292307  0.30753006  0.14741505    -0.59300
C433        C  0.15587501  0.25001010  0.20211636     0.74500
C434        C  0.20291930  0.24493282  0.13517561     0.76900
Cd435      Cd  0.17606552  0.26540374  0.14092009     1.37500
O436        O  0.14395452  0.24522089  0.10300010    -0.58100
O437        O  0.18135433  0.23380380  0.13816627    -0.56900
C438        C  0.18704546  0.31172559  0.14785303     0.76800
O439        O  0.21295366  0.26653208  0.13583584    -0.59300
O440        O  0.17793619  0.26636466  0.08391679    -0.57800
O441        O  0.17707957  0.25915840  0.19697599    -0.57800
O442        O  0.16698442  0.29484983  0.14408899    -0.56900
O443        O  0.29573864  0.45060773  0.43789513    -0.58100
C444        C  0.22725490  0.40479566  0.42343309     0.74500
O445        O  0.24805651  0.47114778  0.46831169    -0.59300
C446        C  0.30918486  0.47207960  0.43945952     0.74500
C447        C  0.25662519  0.46686094  0.37027677     0.76900
Cd448      Cd  0.26131053  0.45240450  0.43101170     1.37500
O449        O  0.24825686  0.41223639  0.41867757    -0.58100
O450        O  0.27220316  0.46298875  0.37609763    -0.56900
C451        C  0.25344317  0.46434143  0.49229183     0.76800
O452        O  0.24471421  0.46647081  0.39337799    -0.59300
O453        O  0.22247764  0.41912407  0.43308904    -0.57800
O454        O  0.30037516  0.48404004  0.43599004    -0.57800
O455        O  0.26213704  0.45242073  0.48751021    -0.56900
O456        O  0.08638330  0.26272104  0.38454828    -0.58100
C457        C  0.15594860  0.31146054  0.39831610     0.74500
O458        O  0.13919625  0.24845437  0.42821034    -0.59300
C459        C  0.07389906  0.24112676  0.38321561     0.74500
C460        C  0.13029494  0.25178631  0.32962104     0.76900
Cd461      Cd  0.12238538  0.26333276  0.39153855     1.37500
O462        O  0.13499681  0.30360755  0.40429894    -0.58100
O463        O  0.11997154  0.26215096  0.33465063    -0.56900
C464        C  0.12816254  0.24864219  0.45205360     0.76800
O465        O  0.13724693  0.24648612  0.35354501    -0.59300
O466        O  0.16080743  0.29736560  0.38789105    -0.57800
O467        O  0.08385527  0.23028545  0.38708483    -0.57800
O468        O  0.11322219  0.25360089  0.44725517    -0.56900
C469        C  0.18603923  0.37338781  0.42338204    -0.13700
C470        C  0.20908690  0.38085623  0.41737638     0.08500
C471        C  0.21442920  0.36549971  0.40441186    -0.13700
C472        C  0.19708525  0.34308864  0.39773115    -0.13700
C473        C  0.17403488  0.33555484  0.40391063     0.08500
C474        C  0.16868819  0.35095239  0.41674971    -0.13700
H475        H  0.18139033  0.38490001  0.43320814     0.12500
H476        H  0.23200482  0.37082017  0.39931236     0.12500
H477        H  0.20176158  0.33159530  0.38791975     0.12500
H478        H  0.15111585  0.34562043  0.42187783     0.12500
C479        C  0.16251285  0.25090766  0.02158971    -0.13700
C480        C  0.14784817  0.24803549  0.04666637     0.08500
C481        C  0.12544200  0.24222642  0.04022624    -0.13700
C482        C  0.11845425  0.24106125  0.00921241    -0.13700
C483        C  0.13358579  0.24515257  0.48415655     0.08500
C484        C  0.15537141  0.24922735  0.49065986    -0.13700
H485        H  0.17982523  0.25521736  0.02590704     0.12500
H486        H  0.11379759  0.23990573  0.05912509     0.12500
H487        H  0.10154868  0.23788863  0.00485991     0.12500
H488        H  0.16743600  0.25257050  0.47188423     0.12500
C489        C  0.15949831  0.24452208  0.25907579    -0.13700
C490        C  0.14666478  0.24547871  0.23444311     0.08500
C491        C  0.12672894  0.24549205  0.24155046    -0.13700
C492        C  0.12083894  0.24650817  0.27269526    -0.13700
C493        C  0.13447833  0.24698419  0.29729090     0.08500
C494        C  0.15330365  0.24501049  0.29025915    -0.13700
H495        H  0.17491352  0.24442937  0.25421532     0.12500
H496        H  0.11656401  0.24630032  0.22305246     0.12500
H497        H  0.10608434  0.24778905  0.27751965     0.12500
H498        H  0.16404943  0.24528589  0.30877914     0.12500
C499        C  0.22911132  0.46828491  0.03236368    -0.13700
C500        C  0.24935622  0.46914692  0.02448878     0.08500
C501        C  0.26438464  0.47160974  0.04832762    -0.13700
C502        C  0.25862353  0.47181228  0.07972157    -0.13700
C503        C  0.23745126  0.46893063  0.08773633     0.08500
C504        C  0.22306643  0.46790813  0.06381343    -0.13700
H505        H  0.21723353  0.46624521  0.01433502     0.12500
H506        H  0.28014945  0.47237882  0.04267569     0.12500
H507        H  0.26996034  0.47253075  0.09767831     0.12500
H508        H  0.20663473  0.46568673  0.06943200     0.12500
C509        C  0.26042063  0.47236945  0.28214762    -0.13700
C510        C  0.23758546  0.46453692  0.27494327     0.08500
C511        C  0.22209422  0.46057141  0.29935016    -0.13700
C512        C  0.22894685  0.46325676  0.33046795    -0.13700
C513        C  0.25131164  0.46948367  0.33783856     0.08500
C514        C  0.26717553  0.47455180  0.31343855    -0.13700
H515        H  0.27267448  0.47557453  0.26370682     0.12500
H516        H  0.20442264  0.45470316  0.29439269     0.12500
H517        H  0.21631804  0.45901630  0.34876428     0.12500
H518        H  0.28451812  0.47929587  0.31856062     0.12500
C519        C  0.21642168  0.37490917  0.16628239    -0.13700
C520        C  0.19788600  0.37816353  0.16611364     0.08500
C521        C  0.17602840  0.35957091  0.15910558    -0.13700
C522        C  0.17271314  0.33816762  0.15270834    -0.13700
C523        C  0.19117139  0.33482469  0.15313207     0.08500
C524        C  0.21310201  0.35345371  0.15983972    -0.13700
H525        H  0.23352514  0.38895896  0.17142986     0.12500
H526        H  0.16145779  0.36154753  0.15858892     0.12500
H527        H  0.15557589  0.32415344  0.14762593     0.12500
H528        H  0.22762357  0.35140014  0.16041445     0.12500
C529        C  0.87610729  0.20601673  0.07926067    -0.13700
C530        C  0.85371027  0.20101719  0.07553130     0.08500
C531        C  0.83543120  0.17820982  0.07758604    -0.13700
C532        C  0.83948348  0.16073979  0.08294054    -0.13700
C533        C  0.86188563  0.16571426  0.08644271     0.08500
C534        C  0.88015803  0.18853947  0.08468076    -0.13700
H535        H  0.89049440  0.22341786  0.07796432     0.12500
H536        H  0.81793620  0.17383501  0.07509420     0.12500
H537        H  0.82508732  0.14334318  0.08425719     0.12500
H538        H  0.89764295  0.19289233  0.08721345     0.12500
C539        C  0.01322602  0.19331515  0.36706635    -0.13700
C540        C  0.00185464  0.20500320  0.36285492     0.08500
C541        C  0.01432880  0.22885802  0.36584205    -0.13700
C542        C  0.03776098  0.24073465  0.37269451    -0.13700
C543        C  0.04905188  0.22893902  0.37685967     0.08500
C544        C  0.03648747  0.20510801  0.37398715    -0.13700
H545        H  0.00411796  0.17493207  0.36509162     0.12500
H546        H  0.00600248  0.23830561  0.36284864     0.12500
H547        H  0.04703646  0.25911975  0.37466149     0.12500
H548        H  0.04466248  0.19550486  0.37692556     0.12500
C549        C  0.89686675  0.11619596  0.24678339    -0.13700
C550        C  0.91842998  0.13522587  0.25394295     0.08500
C551        C  0.93355841  0.14774009  0.22936102    -0.13700
C552        C  0.92679250  0.14203613  0.19817625    -0.13700
C553        C  0.90462117  0.12402417  0.19110711     0.08500
C554        C  0.88993278  0.11080529  0.21565547    -0.13700
H555        H  0.88480226  0.10637025  0.26524746     0.12500
H556        H  0.95026938  0.16253745  0.23427061     0.12500
H557        H  0.93842238  0.15248932  0.17968971     0.12500
H558        H  0.87278370  0.09671597  0.21080602     0.12500
C559        C  0.89836716  0.11440460  0.44742171    -0.13700
C560        C  0.91671458  0.13633822  0.44032222     0.08500
C561        C  0.93057485  0.15062880  0.46462479    -0.13700
C562        C  0.92534359  0.14363337  0.99574532    -0.13700
C563        C  0.90576889  0.12253125  0.00304174     0.08500
C564        C  0.89272635  0.10765599  0.47863319    -0.13700
H565        H  0.88751606  0.10310222  0.42900512     0.12500
H566        H  0.94498491  0.16754753  0.45958705     0.12500
H567        H  0.93559268  0.15541965  0.01414379     0.12500
H568        H  0.87755664  0.09125726  0.98374900     0.12500
C569        C  0.82012125  0.25179841  0.21612837    -0.13700
C570        C  0.79963106  0.23125943  0.22276515     0.08500
C571        C  0.78503943  0.21853730  0.19805904    -0.13700
C572        C  0.79125911  0.22561038  0.16713823    -0.13700
C573        C  0.81245533  0.24525528  0.16023340     0.08500
C574        C  0.82665075  0.25859884  0.18501601    -0.13700
H575        H  0.83167799  0.26184013  0.23481206     0.12500
H576        H  0.76909754  0.20267928  0.20261477     0.12500
H577        H  0.78007042  0.21493186  0.14852934     0.12500
H578        H  0.84311749  0.27382172  0.18028536     0.12500
C579        C  0.77944217  0.21166279  0.43471639    -0.13700
C580        C  0.79276435  0.22620150  0.41011297     0.08500
C581        C  0.81238224  0.24730683  0.41726497    -0.13700
C582        C  0.81952880  0.25300185  0.44822854    -0.13700
C583        C  0.80689538  0.23795425  0.47265828     0.08500
C584        C  0.78633418  0.21762437  0.46582737    -0.13700
H585        H  0.76422238  0.19527165  0.42981257     0.12500
H586        H  0.82300697  0.25878904  0.39880126     0.12500
H587        H  0.83537004  0.26888631  0.45301706     0.12500
H588        H  0.77635053  0.20576487  0.48431086     0.12500
C589        C  0.86019340  0.20197429  0.31540634    -0.13700
C590        C  0.83750410  0.18469680  0.32247406     0.08500
C591        C  0.83331256  0.16404075  0.33457650    -0.13700
C592        C  0.85145868  0.16086768  0.33994555    -0.13700
C593        C  0.87418921  0.17828634  0.33335544     0.08500
C594        C  0.87833195  0.19879809  0.32075863    -0.13700
H595        H  0.86397734  0.21809046  0.30597080     0.12500
H596        H  0.81606279  0.15047875  0.34039054     0.12500
H597        H  0.84768566  0.14479034  0.34951290     0.12500
H598        H  0.89559026  0.21241443  0.31510515     0.12500
C599        C  0.33763154  0.18856928  0.34132816    -0.13700
C600        C  0.33140096  0.16564609  0.34212227     0.08500
C601        C  0.34845585  0.16051919  0.33812385    -0.13700
C602        C  0.37118585  0.17792810  0.33276139    -0.13700
C603        C  0.37729313  0.20079922  0.33115843     0.08500
C604        C  0.36031975  0.20595059  0.33581510    -0.13700
H605        H  0.32487708  0.19307520  0.34442924     0.12500
H606        H  0.34419265  0.14304393  0.33873900     0.12500
H607        H  0.38393526  0.17343502  0.32944045     0.12500
H608        H  0.36452976  0.22340164  0.33493062     0.12500
C609        C  0.24955697  0.23194921  0.11977760    -0.13700
C610        C  0.23643068  0.20802302  0.11776764     0.08500
C611        C  0.21272912  0.19669913  0.12269831    -0.13700
C612        C  0.20224830  0.20885789  0.12900170    -0.13700
C613        C  0.21509991  0.23274815  0.13040871     0.08500
C614        C  0.23893946  0.24425758  0.12595513    -0.13700
H615        H  0.26790151  0.24110283  0.11624415     0.12500
H616        H  0.20213159  0.17829619  0.12161720     0.12500
H617        H  0.18387810  0.19941820  0.13236630     0.12500
H618        H  0.24927618  0.26267281  0.12690343     0.12500
C619        C  0.24650702  0.14979631  0.21834519    -0.13700
C620        C  0.24642100  0.13608218  0.19383384     0.08500
C621        C  0.24248870  0.11450097  0.20065429    -0.13700
C622        C  0.24060329  0.10756528  0.23180468    -0.13700
C623        C  0.24198242  0.12185955  0.25646323     0.08500
C624        C  0.24397180  0.14260630  0.24937620    -0.13700
H625        H  0.24928821  0.16643329  0.21353123     0.12500
H626        H  0.24233514  0.10365760  0.18208096     0.12500
H627        H  0.23907470  0.09147527  0.23667128     0.12500
H628        H  0.24518546  0.15399144  0.26789107     0.12500
C629        C  0.24076442  0.11758081  0.49947536    -0.13700
C630        C  0.24324181  0.13854448  0.00709515     0.08500
C631        C  0.24434256  0.15271537  0.48283195    -0.13700
C632        C  0.24411151  0.14653158  0.45149879    -0.13700
C633        C  0.24330301  0.12634667  0.44403407     0.08500
C634        C  0.24105754  0.11166173  0.46821533    -0.13700
H635        H  0.24006252  0.10641939  0.01765785     0.12500
H636        H  0.24635682  0.16902511  0.98808973     0.12500
H637        H  0.24604389  0.15818194  0.43322166     0.12500
H638        H  0.24037704  0.09596495  0.46293570     0.12500
C639        C  0.43790212  0.21220876  0.20686439    -0.13700
C640        C  0.45669135  0.23184166  0.21956524     0.08500
C641        C  0.47599010  0.24550582  0.20065673    -0.13700
C642        C  0.47594372  0.24004686  0.16890813    -0.13700
C643        C  0.45684278  0.22054069  0.15615399     0.08500
C644        C  0.43808947  0.20646057  0.17565864    -0.13700
H645        H  0.42282422  0.20149050  0.22101533     0.12500
H646        H  0.49055584  0.26089999  0.21003009     0.12500
H647        H  0.49059344  0.25114478  0.15431075     0.12500
H648        H  0.42306931  0.19137626  0.16648301     0.12500
C649        C  0.46678286  0.21942995  0.44169280    -0.13700
C650        C  0.46658115  0.23279396  0.46652045     0.08500
C651        C  0.46954127  0.25403599  0.45993566    -0.13700
C652        C  0.47073412  0.26087147  0.42883827    -0.13700
C653        C  0.46943831  0.24675882  0.40395444     0.08500
C654        C  0.46841536  0.22643591  0.41073976    -0.13700
H655        H  0.46468593  0.20303632  0.44616696     0.12500
H656        H  0.46940431  0.26462528  0.47866096     0.12500
H657        H  0.47149287  0.27662952  0.42424422     0.12500
H658        H  0.46726118  0.21515869  0.39210055     0.12500
C659        C  0.37378406  0.20618193  0.07141999    -0.13700
C660        C  0.37680460  0.18777107  0.06661049     0.08500
C661        C  0.35768035  0.16550699  0.06823288    -0.13700
C662        C  0.33605957  0.16172568  0.07518543    -0.13700
C663        C  0.33313234  0.18012388  0.08071538     0.08500
C664        C  0.35215015  0.20239816  0.07833213    -0.13700
H665        H  0.38822876  0.22355895  0.07038318     0.12500
H666        H  0.35947666  0.15101019  0.06462568     0.12500
H667        H  0.32164522  0.14434376  0.07650345     0.12500
H668        H  0.35037472  0.21688062  0.08225480     0.12500
C669        C  0.83917684  0.00503801  0.10630374    -0.13700
C670        C  0.81710417  0.99307085  0.11943927     0.08500
C671        C  0.80520495  0.00429228  0.12375219    -0.13700
C672        C  0.81567977  0.02741527  0.11627850    -0.13700
C673        C  0.83817281  0.03954582  0.10445305     0.08500
C674        C  0.84956799  0.02797728  0.09888982    -0.13700
H675        H  0.84869438  0.99680217  0.10236481     0.12500
H676        H  0.78812117  0.99540161  0.13371859     0.12500
H677        H  0.80653987  0.03596521  0.12079044     0.12500
H678        H  0.86685161  0.03682039  0.08957623     0.12500
C679        C  0.68143376  0.85884354  0.18263967    -0.13700
C680        C  0.67451744  0.83582657  0.17918755     0.08500
C681        C  0.69072030  0.83045470  0.16979592    -0.13700
C682        C  0.71337345  0.84778447  0.16384179    -0.13700
C683        C  0.72019674  0.87080127  0.16696777     0.08500
C684        C  0.70402198  0.87615091  0.17648197    -0.13700
H685        H  0.66930641  0.86351499  0.18976884     0.12500
H686        H  0.68584044  0.81288578  0.16671123     0.12500
H687        H  0.72549722  0.84317141  0.15643974     0.12500
H688        H  0.70883915  0.89372321  0.17924306     0.12500
C689        C  0.59010571  0.82253528  0.05567617    -0.13700
C690        C  0.58809922  0.80796332  0.03109251     0.08500
C691        C  0.58366687  0.78622030  0.03812257    -0.13700
C692        C  0.58292785  0.77981923  0.06932115    -0.13700
C693        C  0.58596066  0.79481946  0.09392084     0.08500
C694        C  0.58876600  0.81591824  0.08681272    -0.13700
H695        H  0.59336186  0.83934427  0.05078103     0.12500
H696        H  0.58208541  0.77472093  0.01954662     0.12500
H697        H  0.58075430  0.76344738  0.07420328     0.12500
H698        H  0.59128680  0.82785408  0.10527117     0.12500
C699        C  0.58045743  0.78707409  0.33656504    -0.13700
C700        C  0.58143863  0.80743025  0.34356361     0.08500
C701        C  0.58151932  0.82078097  0.31887622    -0.13700
C702        C  0.58212069  0.81461129  0.28773615    -0.13700
C703        C  0.58323781  0.79533646  0.28091944     0.08500
C704        C  0.58164431  0.78123211  0.30553226    -0.13700
H705        H  0.58048163  0.77652177  0.35511262     0.12500
H706        H  0.58225091  0.83655582  0.32367614     0.12500
H707        H  0.58331713  0.82573356  0.26914185     0.12500
H708        H  0.58228911  0.76616457  0.30082503     0.12500
C709        C  0.81732584  0.91135732  0.00473794    -0.13700
C710        C  0.79955475  0.89037746  0.49304828     0.08500
C711        C  0.78287603  0.87462705  0.51393657    -0.13700
C712        C  0.78309016  0.88018234  0.04539403    -0.13700
C713        C  0.80034789  0.90134532  0.05694900     0.08500
C714        C  0.81788369  0.91668605  0.03665372    -0.13700
H715        H  0.83038345  0.92378606  0.48913348     0.12500
H716        H  0.76891349  0.85834910  0.50567032     0.12500
H717        H  0.76934638  0.86815526  0.06059556     0.12500
H718        H  0.83120042  0.93325225  0.04508434     0.12500
C719        C  0.81290858  0.89551707  0.28081099    -0.13700
C720        C  0.80893501  0.90697763  0.30492386     0.08500
C721        C  0.80931361  0.92695542  0.29786763    -0.13700
C722        C  0.81125075  0.93393082  0.26665362    -0.13700
C723        C  0.81321302  0.92121309  0.24222614     0.08500
C724        C  0.81528720  0.90270360  0.24982914    -0.13700
H725        H  0.81299617  0.88022936  0.28574599     0.12500
H726        H  0.80635006  0.93611856  0.31608110     0.12500
H727        H  0.80970362  0.94836021  0.26149217     0.12500
H728        H  0.81690153  0.89263216  0.23161921     0.12500
C729        C  0.69697199  0.83538352  0.41155668    -0.13700
C730        C  0.71541548  0.85738354  0.40479484     0.08500
C731        C  0.71175591  0.87557277  0.40510410    -0.13700
C732        C  0.69017393  0.87189354  0.41224576    -0.13700
C733        C  0.67177419  0.84993273  0.41922944     0.08500
C734        C  0.67538370  0.83170121  0.41867482    -0.13700
H735        H  0.69928721  0.82107250  0.41175089     0.12500
H736        H  0.72565831  0.89275097  0.40007490     0.12500
H737        H  0.68789199  0.88622565  0.41226528     0.12500
H738        H  0.66151469  0.81454075  0.42388700     0.12500
C739        C  0.84913714  0.69524171  0.09176082    -0.13700
C740        C  0.87194333  0.70128550  0.08744645     0.08500
C741        C  0.87633341  0.68474041  0.07650819    -0.13700
C742        C  0.85818697  0.66258448  0.07000380    -0.13700
C743        C  0.83537268  0.65661239  0.07442252     0.08500
C744        C  0.83107876  0.67317511  0.08536556    -0.13700
H745        H  0.84518766  0.70762314  0.10010597     0.12500
H746        H  0.89372609  0.68895614  0.07277848     0.12500
H747        H  0.86201389  0.65010167  0.06171251     0.12500
H748        H  0.81372642  0.66905873  0.08916991     0.12500
C749        C  0.81401931  0.56900535  0.19515150    -0.13700
C750        C  0.80136285  0.57056593  0.21999973     0.08500
C751        C  0.78074880  0.56920773  0.21352980    -0.13700
C752        C  0.77391246  0.56819466  0.18249730    -0.13700
C753        C  0.78728588  0.56792371  0.15755183     0.08500
C754        C  0.80689943  0.56741354  0.16423969    -0.13700
H755        H  0.82991036  0.56986056  0.19957213     0.12500
H756        H  0.77071241  0.57039779  0.23228148     0.12500
H757        H  0.75869762  0.56860500  0.17795099     0.12500
H758        H  0.81758510  0.56734696  0.14549906     0.12500
C759        C  0.78464506  0.56822781  0.41453291    -0.13700
C760        C  0.80514816  0.56947733  0.40702115     0.08500
C761        C  0.81888929  0.56976057  0.43135805    -0.13700
C762        C  0.81272415  0.56984960  0.46268796    -0.13700
C763        C  0.79303410  0.57023340  0.47004388     0.08500
C764        C  0.77880029  0.56889846  0.44574832    -0.13700
H765        H  0.77387297  0.56823016  0.39626981     0.12500
H766        H  0.83484160  0.57081079  0.42612933     0.12500
H767        H  0.82403345  0.57103519  0.48102913     0.12500
H768        H  0.76349972  0.56915105  0.45089533     0.12500
C769        C  0.81156507  0.79423779  0.36866109    -0.13700
C770        C  0.83551539  0.80572265  0.36613535     0.08500
C771        C  0.84849211  0.82945818  0.37013688    -0.13700
C772        C  0.83787413  0.84148073  0.37669194    -0.13700
C773        C  0.81396865  0.83015050  0.37916887     0.08500
C774        C  0.80084472  0.80639050  0.37496536    -0.13700
H775        H  0.80116268  0.77593121  0.36574156     0.12500
H776        H  0.86697551  0.83881818  0.36847313     0.12500
H777        H  0.84847827  0.85977761  0.37962429     0.12500
H778        H  0.78237692  0.79723555  0.37668157     0.12500
C779        C  0.88647696  0.78984622  0.23366378    -0.13700
C780        C  0.89980891  0.78948467  0.25809474     0.08500
C781        C  0.91978616  0.78965036  0.25068905    -0.13700
C782        C  0.92541308  0.78847328  0.21951610    -0.13700
C783        C  0.91149446  0.78768794  0.19514937     0.08500
C784        C  0.89245780  0.78926209  0.20237579    -0.13700
H785        H  0.87096671  0.78970574  0.23877517     0.12500
H786        H  0.93029775  0.78924876  0.26901653     0.12500
H787        H  0.94029180  0.78745081  0.21445640     0.12500
H788        H  0.88146924  0.78864948  0.18396240     0.12500
C789        C  0.92326089  0.79390290  0.45250613    -0.13700
C790        C  0.90118501  0.78908973  0.44619320     0.08500
C791        C  0.88681039  0.78693697  0.47128744    -0.13700
C792        C  0.89385063  0.78819306  0.00217002    -0.13700
C793        C  0.91519279  0.79111445  0.00850187     0.08500
C794        C  0.93009407  0.79458223  0.48344179    -0.13700
H795        H  0.93466465  0.79568405  0.43355816     0.12500
H796        H  0.86976221  0.78341899  0.46701626     0.12500
H797        H  0.88199176  0.78535768  0.02102140     0.12500
H798        H  0.94666349  0.79690292  0.48774210     0.12500
C799        C  0.83461422  0.68426667  0.33225805    -0.13700
C800        C  0.85672128  0.70244426  0.33909304     0.08500
C801        C  0.87487430  0.69861198  0.33889998    -0.13700
C802        C  0.87095897  0.67698885  0.33225791    -0.13700
C803        C  0.84880801  0.65878001  0.32560661     0.08500
C804        C  0.83070247  0.66266393  0.32561870    -0.13700
H805        H  0.82034883  0.68673238  0.33201971     0.12500
H806        H  0.89217077  0.71236187  0.34383211     0.12500
H807        H  0.88521500  0.67450695  0.33248081     0.12500
H808        H  0.81340310  0.64893378  0.32066543     0.12500
C809        C  0.19150357  0.00476935  0.38268031    -0.13700
C810        C  0.20400466  0.99402874  0.38419991     0.08500
C811        C  0.22774355  0.00701652  0.37899827    -0.13700
C812        C  0.23864559  0.03017278  0.37163300    -0.13700
C813        C  0.22598464  0.04069438  0.36915000     0.08500
C814        C  0.20235147  0.02781825  0.37517312    -0.13700
H815        H  0.17319393  0.99525301  0.38672688     0.12500
H816        H  0.23781498  0.99921425  0.38013633     0.12500
H817        H  0.25693971  0.03976883  0.36749826     0.12500
H818        H  0.19218727  0.03552261  0.37392564     0.12500
C819        C  0.16888919  0.82866530  0.41806235    -0.13700
C820        C  0.19092159  0.83388103  0.42552967     0.08500
C821        C  0.20890496  0.85687070  0.42648987    -0.13700
C822        C  0.20496692  0.87426685  0.41971811    -0.13700
C823        C  0.18299588  0.86900620  0.41172646     0.08500
C824        C  0.16496555  0.84603375  0.41123442    -0.13700
H825        H  0.15472414  0.81113867  0.41708631     0.12500
H826        H  0.22609215  0.86142107  0.43221983     0.12500
H827        H  0.21912001  0.89180099  0.42061233     0.12500
H828        H  0.14777287  0.84143484  0.40544167     0.12500
C829        C  0.03337073  0.84107476  0.13254979    -0.13700
C830        C  0.04489624  0.82934527  0.13375030     0.08500
C831        C  0.03263257  0.80577799  0.12789987    -0.13700
C832        C  0.00933703  0.79427121  0.12050496    -0.13700
C833        C  0.99800126  0.80617850  0.11865052     0.08500
C834        C  0.01023656  0.82965338  0.12503013    -0.13700
H835        H  0.04231299  0.85923367  0.13700785     0.12500
H836        H  0.04108703  0.79631932  0.12866565     0.12500
H837        H  0.00025952  0.77612221  0.11596880     0.12500
H838        H  0.00193280  0.83925998  0.12418972     0.12500
C839        C  0.15140306  0.92463421  0.51345018    -0.13700
C840        C  0.13912133  0.90908527  0.48928417     0.08500
C841        C  0.12118930  0.88705207  0.49688068    -0.13700
C842        C  0.11656503  0.88022778  0.02808686    -0.13700
C843        C  0.12950071  0.89546111  0.05220598     0.08500
C844        C  0.14643690  0.91794329  0.04473908    -0.13700
H845        H  0.16540206  0.94170046  0.50809737     0.12500
H846        H  0.11167302  0.87468047  0.47867382     0.12500
H847        H  0.10327805  0.86282318  0.03332508     0.12500
H848        H  0.15660850  0.92996876  0.06295710     0.12500
C849        C  0.11092336  0.88564268  0.26297088    -0.13700
C850        C  0.12661632  0.89773177  0.23872832     0.08500
C851        C  0.14844110  0.91615305  0.24615662    -0.13700
C852        C  0.15512604  0.92123046  0.27732675    -0.13700
C853        C  0.13988238  0.90839208  0.30158297     0.08500
C854        C  0.11742918  0.89115192  0.29425679    -0.13700
H855        H  0.09399907  0.87130292  0.25771099     0.12500
H856        H  0.16090014  0.92556406  0.22788421     0.12500
H857        H  0.17248647  0.93475778  0.28246536     0.12500
H858        H  0.10539204  0.88107582  0.31261167     0.12500
C859        C  0.22970211  0.78399048  0.08502352    -0.13700
C860        C  0.25075321  0.80369600  0.09211272     0.08500
C861        C  0.26528089  0.81705480  0.06748303    -0.13700
C862        C  0.25830396  0.81140028  0.03632870    -0.13700
C863        C  0.23646849  0.79268161  0.02950034     0.08500
C864        C  0.22252045  0.77868294  0.05403569    -0.13700
H865        H  0.21810472  0.77351194  0.10353125     0.12500
H866        H  0.28159789  0.83238077  0.07238431     0.12500
H867        H  0.26934310  0.82244024  0.01778403     0.12500
H868        H  0.20565931  0.76404913  0.04931401     0.12500
C869        C  0.22513756  0.78066922  0.28724047    -0.13700
C870        C  0.24488985  0.80167034  0.28002097     0.08500
C871        C  0.25929143  0.81536600  0.30433534    -0.13700
C872        C  0.25346482  0.80876815  0.33546989    -0.13700
C873        C  0.23285826  0.78861450  0.34286201     0.08500
C874        C  0.21900856  0.77430197  0.31850267    -0.13700
H875        H  0.21378203  0.76985872  0.26885215     0.12500
H876        H  0.27472155  0.83157543  0.29928534     0.12500
H877        H  0.26436712  0.82015477  0.35378271     0.12500
H878        H  0.20300606  0.75865511  0.32365659     0.12500
C879        C  0.18423676  0.82855039  0.17501392    -0.13700
C880        C  0.20728548  0.84655450  0.17438828     0.08500
C881        C  0.21242402  0.86855091  0.16733682    -0.13700
C882        C  0.19486794  0.87243064  0.16094219    -0.13700
C883        C  0.17182172  0.85437812  0.16141017     0.08500
C884        C  0.16671071  0.83242069  0.16859544    -0.13700
H885        H  0.17971005  0.81137199  0.18030832     0.12500
H886        H  0.23000044  0.88271964  0.16652965     0.12500
H887        H  0.19935344  0.88958663  0.15558248     0.12500
H888        H  0.14915067  0.81821693  0.16932433     0.12500
C889        C  0.87287779  0.52370558  0.29155444    -0.13700
C890        C  0.89604519  0.53608152  0.28271790     0.08500
C891        C  0.90757265  0.55994854  0.28109251    -0.13700
C892        C  0.89598923  0.57116429  0.28806374    -0.13700
C893        C  0.87278769  0.55865183  0.29699371     0.08500
C894        C  0.86143592  0.53483453  0.29868452    -0.13700
H895        H  0.86355215  0.50531829  0.29330606     0.12500
H896        H  0.92545369  0.56988911  0.27439721     0.12500
H897        H  0.90512291  0.58954155  0.28638317     0.12500
H898        H  0.84357257  0.52468008  0.30542755     0.12500
C899        C  0.13182956  0.47265837  0.21036355    -0.13700
C900        C  0.14297540  0.49653357  0.20902782     0.08500
C901        C  0.16609089  0.50921232  0.19990315    -0.13700
C902        C  0.17799454  0.49851474  0.19300662    -0.13700
C903        C  0.16719296  0.47476255  0.19500001     0.08500
C904        C  0.14388021  0.46184061  0.20343444    -0.13700
H905        H  0.11400251  0.46244152  0.21724505     0.12500
H906        H  0.17517838  0.52759603  0.19831220     0.12500
H907        H  0.19586827  0.50899993  0.18643557     0.12500
H908        H  0.13511476  0.44348906  0.20519443     0.12500
C909        C  0.03992917  0.53979634  0.25585533    -0.13700
C910        C  0.04319384  0.52153677  0.25079968     0.08500
C911        C  0.02414342  0.49922316  0.25199578    -0.13700
C912        C  0.00228164  0.49524343  0.25762951    -0.13700
C913        C  0.99893349  0.51347565  0.26214182     0.08500
C914        C  0.01801874  0.53581143  0.26143032    -0.13700
H915        H  0.05430588  0.55722241  0.25521088     0.12500
H916        H  0.02609404  0.48482972  0.24829632     0.12500
H917        H  0.98791237  0.47780903  0.25799246     0.12500
H918        H  0.01599226  0.55018467  0.26482253     0.12500
C919        C  0.16611425  0.67332354  0.45729342    -0.13700
C920        C  0.14264734  0.66111860  0.46438311     0.08500
C921        C  0.13069306  0.67245836  0.46381400    -0.13700
C922        C  0.14218896  0.69573634  0.45671415    -0.13700
C923        C  0.16574203  0.70789231  0.44987116     0.08500
C924        C  0.17748483  0.69637233  0.45004786    -0.13700
H925        H  0.17576744  0.66504193  0.45725328     0.12500
H926        H  0.11255254  0.66339570  0.46905358     0.12500
H927        H  0.13274870  0.70423247  0.45684383     0.12500
H928        H  0.19564021  0.70524031  0.44492599     0.12500
C929        C  0.10467710  0.57636425  0.09873077    -0.13700
C930        C  0.12279460  0.58119831  0.07823866     0.08500
C931        C  0.14139981  0.58035164  0.08976385    -0.13700
C932        C  0.14145422  0.57420018  0.12107365    -0.13700
C933        C  0.12263409  0.56825603  0.14079698     0.08500
C934        C  0.10445875  0.56966891  0.12942224    -0.13700
H935        H  0.09004306  0.57675403  0.09064965     0.12500
H936        H  0.15557788  0.58398023  0.07448881     0.12500
H937        H  0.15555875  0.57296681  0.12937704     0.12500
H938        H  0.08976585  0.56509141  0.14420144     0.12500
C939        C  0.13278374  0.58944210  0.36459980    -0.13700
C940        C  0.12838556  0.57421312  0.38910425     0.08500
C941        C  0.12695519  0.55361333  0.38239613    -0.13700
C942        C  0.12812412  0.54758697  0.35134092    -0.13700
C943        C  0.13124074  0.56229963  0.32661197     0.08500
C944        C  0.13447199  0.58366401  0.33368931    -0.13700
H945        H  0.13408522  0.60550953  0.36925746     0.12500
H946        H  0.12346949  0.54157243  0.40089404     0.12500
H947        H  0.12552177  0.53097497  0.34656405     0.12500
H948        H  0.13679064  0.59530423  0.31517546     0.12500
C949        C  0.90700163  0.36206837  0.03210512    -0.13700
C950        C  0.89369011  0.37194202  0.03032130     0.08500
C951        C  0.87005215  0.35832419  0.03581826    -0.13700
C952        C  0.85993851  0.33543100  0.04344485    -0.13700
C953        C  0.87317875  0.32553510  0.04568573     0.08500
C954        C  0.89680197  0.33899096  0.03964764    -0.13700
H955        H  0.92528573  0.37220952  0.02797118     0.12500
H956        H  0.85934331  0.36543181  0.03467951     0.12500
H957        H  0.84165777  0.32548154  0.04769581     0.12500
H958        H  0.90736721  0.33173662  0.04094568     0.12500
C959        C  0.90891762  0.47638097  0.12004106    -0.13700
C960        C  0.90993132  0.45710628  0.11283259     0.08500
C961        C  0.90995015  0.44369391  0.13730352    -0.13700
C962        C  0.90989657  0.44995910  0.16848140    -0.13700
C963        C  0.91045770  0.47008291  0.17571188     0.08500
C964        C  0.90950302  0.48300517  0.15124668    -0.13700
H965        H  0.90903374  0.48704300  0.10154835     0.12500
H966        H  0.91068429  0.42871135  0.13228139     0.12500
H967        H  0.91076408  0.43977225  0.18686493     0.12500
H968        H  0.90994191  0.49861212  0.15622154     0.12500
C969        C  0.90304293  0.43886721  0.39995554    -0.13700
C970        C  0.90396291  0.45266372  0.42499883     0.08500
C971        C  0.90501969  0.47305639  0.41849908    -0.13700
C972        C  0.90720366  0.48048725  0.38761126    -0.13700
C973        C  0.90775919  0.46735979  0.36271481     0.08500
C974        C  0.90461948  0.44602768  0.36902005    -0.13700
H975        H  0.90224373  0.42306463  0.40434402     0.12500
H976        H  0.90587284  0.48406275  0.43733869     0.12500
H977        H  0.90940095  0.49693717  0.38324641     0.12500
H978        H  0.90499559  0.43563057  0.35019639     0.12500
C979        C  0.99911977  0.52108799  0.99945305    -0.13700
C980        C  0.99384462  0.49851220  0.00145900     0.08500
C981        C  0.01117310  0.49397291  0.99603449    -0.13700
C982        C  0.03344299  0.51169822  0.48925662    -0.13700
C983        C  0.03882589  0.53431842  0.48769724     0.08500
C984        C  0.02140742  0.53883011  0.49259662    -0.13700
H985        H  0.98603593  0.52506634  0.00330269     0.12500
H986        H  0.00755790  0.47673373  0.99719372     0.12500
H987        H  0.04653249  0.50770412  0.48563276     0.12500
H988        H  0.02507976  0.55609704  0.49168522     0.12500
C989        C  0.37086634  0.51710584  0.45505003    -0.13700
C990        C  0.38095315  0.50413448  0.45844542     0.08500
C991        C  0.36723778  0.48032508  0.45538485    -0.13700
C992        C  0.34383970  0.46975841  0.44907737    -0.13700
C993        C  0.33387349  0.48285780  0.44553872     0.08500
C994        C  0.34764634  0.50661764  0.44861112    -0.13700
H995        H  0.38098233  0.53549377  0.45710402     0.12500
H996        H  0.37458098  0.46992128  0.45781413     0.12500
H997        H  0.33357612  0.45138253  0.44694632     0.12500
H998        H  0.34047251  0.51717357  0.44612881     0.12500
C999        C  0.67072672  0.51935412  0.03739080    -0.13700
C1000       C  0.66046952  0.53168028  0.03003007     0.08500
C1001       C  0.67369353  0.55559008  0.03123267    -0.13700
C1002       C  0.69688544  0.56690590  0.03930708    -0.13700
C1003       C  0.70709407  0.55444907  0.04643554     0.08500
C1004       C  0.69369649  0.53057245  0.04553039    -0.13700
H1005       H  0.66099892  0.50090783  0.53679329     0.12500
H1006       H  0.66619407  0.56548853  0.02566683     0.12500
H1007       H  0.70685157  0.58534493  0.03970068     0.12500
H1008       H  0.70102460  0.52046648  0.05079230     0.12500
C1009       C  0.52793023  0.53830466  0.47757197    -0.13700
C1010       C  0.50464768  0.52095724  0.47632638     0.08500
C1011       C  0.49847313  0.49825417  0.97987441    -0.13700
C1012       C  0.51521311  0.49303847  0.98510772    -0.13700
C1013       C  0.53844380  0.51043679  0.98706615     0.08500
C1014       C  0.54464483  0.53310131  0.48297144    -0.13700
H1015       H  0.53323212  0.55598971  0.47490617     0.12500
H1016       H  0.48069127  0.48455387  0.97905981     0.12500
H1017       H  0.50991779  0.47537886  0.98807363     0.12500
H1018       H  0.56239924  0.54683303  0.48414115     0.12500
C1019       C  0.47478651  0.35838850  0.28129871    -0.13700
C1020       C  0.49777242  0.37070524  0.27135319     0.08500
C1021       C  0.50971895  0.35942920  0.26894602    -0.13700
C1022       C  0.49924035  0.33657804  0.27688600    -0.13700
C1023       C  0.47644053  0.32425778  0.28732838     0.08500
C1024       C  0.46415826  0.33526221  0.28913906    -0.13700
H1025       H  0.46519407  0.36667795  0.28344521     0.12500
H1026       H  0.52745136  0.36839018  0.26144038     0.12500
H1027       H  0.50915277  0.32860209  0.27504314     0.12500
H1028       H  0.44651284  0.32611283  0.29702105     0.12500
C1029       C  0.57539380  0.45178994  0.14672689    -0.13700
C1030       C  0.55510910  0.44890720  0.15942728     0.08500
C1031       C  0.53979774  0.45033776  0.13954455    -0.13700
C1032       C  0.54518388  0.45585555  0.10811384    -0.13700
C1033       C  0.56566642  0.45941933  0.09561036     0.08500
C1034       C  0.58051313  0.45675235  0.11480826    -0.13700
H1035       H  0.58747851  0.45078715  0.16154876     0.12500
H1036       H  0.52406443  0.44827969  0.14859756     0.12500
H1037       H  0.53364456  0.45805110  0.09370552     0.12500
H1038       H  0.59660955  0.45983046  0.10556167     0.12500
C1039       C  0.59778844  0.48182673  0.38651883    -0.13700
C1040       C  0.58432696  0.46698422  0.41079842     0.08500
C1041       C  0.56537355  0.44553620  0.40314829    -0.13700
C1042       C  0.55863676  0.43994712  0.37205960    -0.13700
C1043       C  0.57098442  0.45550701  0.34799529     0.08500
C1044       C  0.59126223  0.47601547  0.35524668    -0.13700
H1045       H  0.61257635  0.49844966  0.39178960     0.12500
H1046       H  0.55472736  0.43374011  0.42131957     0.12500
H1047       H  0.54304527  0.42390331  0.36697216     0.12500
H1048       H  0.60105445  0.48825772  0.33705466     0.12500
C1049       C  0.56975235  0.67639865  0.20552112    -0.13700
C1050       C  0.54585127  0.66348098  0.20915505     0.08500
C1051       C  0.53364101  0.67450417  0.20747190    -0.13700
C1052       C  0.54498833  0.69788851  0.20234682    -0.13700
C1053       C  0.56885928  0.71087727  0.19878049     0.08500
C1054       C  0.58117576  0.69993979  0.20043699    -0.13700
H1055       H  0.57957889  0.66833466  0.20663815     0.12500
H1056       H  0.51520775  0.66504781  0.21016453     0.12500
H1057       H  0.53502331  0.70581704  0.20136049     0.12500
H1058       H  0.59961167  0.70956692  0.19782927     0.12500
C1059       C  0.45099420  0.55088489  0.09102570    -0.13700
C1060       C  0.46534737  0.56514767  0.06686656     0.08500
C1061       C  0.48587483  0.58524368  0.07464795    -0.13700
C1062       C  0.49263240  0.59023584  0.10583294    -0.13700
C1063       C  0.47876152  0.57551724  0.12984440     0.08500
C1064       C  0.45754132  0.55617601  0.12235207    -0.13700
H1065       H  0.43506792  0.53525950  0.08563305     0.12500
H1066       H  0.49729655  0.59648560  0.05654329     0.12500
H1067       H  0.50900094  0.60537924  0.11116830     0.12500
H1068       H  0.44660547  0.54459059  0.14052688     0.12500
C1069       C  0.45269575  0.55973819  0.35534004    -0.13700
C1070       C  0.46783925  0.57243882  0.37958352     0.08500
C1071       C  0.48829676  0.59283170  0.37246500    -0.13700
C1072       C  0.49452569  0.59917948  0.34121201    -0.13700
C1073       C  0.48009717  0.58548889  0.31683646     0.08500
C1074       C  0.45864417  0.56636601  0.32422781    -0.13700
H1075       H  0.43670995  0.54403683  0.36038344     0.12500
H1076       H  0.50020732  0.60288105  0.39081999     0.12500
H1077       H  0.51113917  0.61408765  0.33604654     0.12500
H1078       H  0.44723444  0.55551922  0.30590611     0.12500
C1079       C  0.54509682  0.52173423  0.24622442    -0.13700
C1080       C  0.52618013  0.49964796  0.25180961     0.08500
C1081       C  0.50416281  0.49609592  0.25161732    -0.13700
C1082       C  0.50110093  0.51416444  0.24566825    -0.13700
C1083       C  0.51998626  0.53618750  0.23969989     0.08500
C1084       C  0.54203093  0.53981687  0.24024526    -0.13700
H1085       H  0.56229665  0.52499591  0.24602278     0.12500
H1086       H  0.48927298  0.47930253  0.25576113     0.12500
H1087       H  0.48387740  0.51084055  0.24561320     0.12500
H1088       H  0.55688992  0.55657567  0.23579788     0.12500
C1089       C  0.36584316  0.86571386  0.21742734    -0.13700
C1090       C  0.37913206  0.88951867  0.22044886     0.08500
C1091       C  0.36883987  0.90216478  0.21535905    -0.13700
C1092       C  0.34568060  0.89115856  0.20736401    -0.13700
C1093       C  0.33249669  0.86734155  0.20412218     0.08500
C1094       C  0.34283828  0.85477510  0.20930197    -0.13700
H1095       H  0.37328933  0.85549842  0.22099272     0.12500
H1096       H  0.37870530  0.92055433  0.21740266     0.12500
H1097       H  0.33811836  0.90125286  0.20369056     0.12500
H1098       H  0.33312142  0.83638570  0.20716692     0.12500
C1099       C  0.67786342  0.16505521  0.28662951    -0.13700
C1100       C  0.66438394  0.14128144  0.28354402     0.08500
C1101       C  0.67464035  0.12846195  0.28725394    -0.13700
C1102       C  0.69794198  0.13929560  0.29438258    -0.13700
C1103       C  0.71125860  0.16308199  0.29803596     0.08500
C1104       C  0.70097011  0.17580017  0.29388094    -0.13700
H1105       H  0.67047765  0.17540645  0.28393678     0.12500
H1106       H  0.66462012  0.11008557  0.28500981     0.12500
H1107       H  0.70548219  0.12910134  0.29722213     0.12500
H1108       H  0.71079243  0.19417329  0.29625833     0.12500
C1109       C  0.49892147  0.01013954  0.25150280    -0.13700
C1110       C  0.50429249  0.99323936  0.24903896     0.08500
C1111       C  0.52699751  0.99923682  0.25378651    -0.13700
C1112       C  0.54403168  0.02171914  0.26062114    -0.13700
C1113       C  0.53870288  0.03865056  0.26279455     0.08500
C1114       C  0.51596838  0.03263813  0.25831083    -0.13700
H1115       H  0.48157160  0.00599076  0.24807169     0.12500
H1116       H  0.53161157  0.98651929  0.25230283     0.12500
H1117       H  0.56139635  0.02587554  0.26393703     0.12500
H1118       H  0.51138437  0.04538281  0.25968645     0.12500
C1119       C  0.51192774  0.16077952  0.04714173    -0.13700
C1120       C  0.49985567  0.13779810  0.03795893     0.08500
C1121       C  0.47592782  0.12618663  0.03545018    -0.13700
C1122       C  0.46440663  0.13762312  0.04123776    -0.13700
C1123       C  0.47666014  0.16076641  0.04986884     0.08500
C1124       C  0.50048403  0.17207430  0.05313493    -0.13700
H1125       H  0.53033663  0.17013914  0.04965987     0.12500
H1126       H  0.46620148  0.10842683  0.52856122     0.12500
H1127       H  0.44602645  0.12848814  0.03853258     0.12500
H1128       H  0.51043686  0.18986805  0.05984093     0.12500
C1129       C  0.58912445  0.12638907  0.12327444    -0.13700
C1130       C  0.56767967  0.12303728  0.11648946     0.08500
C1131       C  0.55395357  0.12297498  0.14113603    -0.13700
C1132       C  0.56107293  0.12515421  0.17215900    -0.13700
C1133       C  0.58178654  0.12685430  0.17909351     0.08500
C1134       C  0.59601274  0.12802790  0.15436037    -0.13700
H1135       H  0.59998135  0.12647015  0.10467764     0.12500
H1136       H  0.53739595  0.12058261  0.13644603     0.12500
H1137       H  0.54971624  0.12405119  0.19075860     0.12500
H1138       H  0.61205785  0.12929105  0.15910667     0.12500
C1139       C  0.55165980  0.12552554  0.40411491    -0.13700
C1140       C  0.56628680  0.12777010  0.42849031     0.08500
C1141       C  0.58809267  0.13201440  0.42103131    -0.13700
C1142       C  0.59435838  0.13196856  0.38983606    -0.13700
C1143       C  0.57914369  0.12822948  0.36559256     0.08500
C1144       C  0.55816344  0.12602047  0.37285236    -0.13700
H1145       H  0.53476212  0.12229306  0.40924183     0.12500
H1146       H  0.59968252  0.13377502  0.43932171     0.12500
H1147       H  0.61069610  0.13382309  0.38469924     0.12500
H1148       H  0.54613572  0.12301535  0.35451683     0.12500
C1149       C  0.53478950  0.87169116  0.46845610    -0.13700
C1150       C  0.54637848  0.89554266  0.47010907     0.08500
C1151       C  0.57013118  0.90835973  0.46468405    -0.13700
C1152       C  0.58194478  0.89742208  0.45732137    -0.13700
C1153       C  0.57013495  0.87353859  0.45514790     0.08500
C1154       C  0.54648509  0.86085496  0.46105244    -0.13700
H1155       H  0.51651776  0.86129203  0.47255524     0.12500
H1156       H  0.57949577  0.92677772  0.46578219     0.12500
H1157       H  0.60020989  0.90760792  0.45311228     0.12500
H1158       H  0.53689151  0.84242820  0.45990055     0.12500
C1159       C  0.48928734  0.90314303  0.10177127    -0.13700
C1160       C  0.47652441  0.90451748  0.07739934     0.08500
C1161       C  0.45665354  0.90456132  0.08475859    -0.13700
C1162       C  0.45069738  0.90512324  0.11596284    -0.13700
C1163       C  0.46422498  0.90515264  0.14036958     0.08500
C1164       C  0.48299832  0.90314726  0.13305569    -0.13700
H1165       H  0.50467358  0.90305367  0.09664343     0.12500
H1166       H  0.44659982  0.90575808  0.06644235     0.12500
H1167       H  0.43601074  0.90647731  0.12100407     0.12500
H1168       H  0.49365995  0.90310079  0.15144774     0.12500
C1169       C  0.49104621  0.90952367  0.36511726    -0.13700
C1170       C  0.47663415  0.90765068  0.38999692     0.08500
C1171       C  0.45440871  0.90229742  0.38345534    -0.13700
C1172       C  0.44738849  0.90068703  0.35241031    -0.13700
C1173       C  0.46226096  0.90376935  0.32748423     0.08500
C1174       C  0.48381038  0.90729021  0.33413858    -0.13700
H1175       H  0.50821180  0.91345148  0.36961638     0.12500
H1176       H  0.44299553  0.90075457  0.40224846     0.12500
H1177       H  0.43069041  0.89798842  0.34787189     0.12500
H1178       H  0.49566917  0.90989258  0.31539858     0.12500
C1179       C  0.50322543  0.01839946  0.00645062    -0.13700
C1180       C  0.52541821  0.03743390  0.00999182     0.08500
C1181       C  0.54408577  0.03444216  0.50785269    -0.13700
C1182       C  0.54065947  0.01290880  0.50214216    -0.13700
C1183       C  0.51848584  0.99390158  0.49838321     0.08500
C1184       C  0.49979779  0.99685464  0.00072686    -0.13700
H1185       H  0.48853625  0.02017062  0.00793642     0.12500
H1186       H  0.56142628  0.04880025  0.51045959     0.12500
H1187       H  0.55535754  0.01115456  0.50061923     0.12500
H1188       H  0.48246468  0.98248835  0.99808919     0.12500
O1189       O  0.47288546  0.90502327  0.52150599    -0.58100
C1190       C  0.48560213  0.91322224  0.92218652     0.74500
O1191       O  0.53083695  0.96730474  0.99070793    -0.59300
C1192       C  0.48562592  0.90937557  0.54508648     0.74500
C1193       C  0.53313526  0.90649369  0.97611116     0.76900
Cd1194     Cd  0.50496742  0.92533400  0.98390473     1.37500
O1195       O  0.47296002  0.90454477  0.94622215    -0.58100
O1196       O  0.51158375  0.89450376  0.97917376    -0.56900
C1197       C  0.51463579  0.97099276  0.99253491     0.76800
O1198       O  0.54233224  0.92796811  0.97782585    -0.59300
O1199       O  0.50659409  0.92742375  0.92700351    -0.57800
O1200       O  0.50691300  0.91951928  0.53981905    -0.57800
O1201       O  0.49464579  0.95385924  0.98934559    -0.56900
O1202       O  0.57168094  0.12473853  0.56026522    -0.58100
C1203       C  0.55767683  0.12245154  0.96103723     0.74500
O1204       O  0.51325886  0.06425304  0.51714130    -0.59300
C1205       C  0.55874883  0.11783889  0.58428579     0.74500
C1206       C  0.51260063  0.12641983  0.53142176     0.76900
Cd1207     Cd  0.53947204  0.10635492  0.52261599     1.37500
O1208       O  0.57088642  0.12753186  0.98426914    -0.58100
O1209       O  0.53422126  0.13798183  0.52910059    -0.56900
C1210       C  0.52938811  0.06046086  0.51513931     0.76800
O1211       O  0.50282424  0.10494080  0.52834304    -0.59300
O1212       O  0.53643116  0.11128913  0.96686173    -0.57800
O1213       O  0.53746215  0.10575337  0.57945603    -0.57800
O1214       O  0.54945704  0.07761565  0.51742250    -0.56900
O1215       O  0.62622037  0.10870088  0.77755558    -0.58100
C1216       C  0.55684342  0.06267763  0.76801503     0.74500
O1217       O  0.57660012  0.12791763  0.80940215    -0.59300
C1218       C  0.63956734  0.13020651  0.77829149     0.74500
C1219       C  0.58675052  0.12378384  0.71154601     0.76900
Cd1220     Cd  0.59141593  0.11024008  0.77296293     1.37500
O1221       O  0.57783180  0.06923053  0.76915308    -0.58100
O1222       O  0.59973567  0.11646696  0.71706855    -0.56900
C1223       C  0.58380689  0.12337063  0.83371507     0.76800
O1224       O  0.57720628  0.12677563  0.73504859    -0.59300
O1225       O  0.55215367  0.07796314  0.77069143    -0.57800
O1226       O  0.63050434  0.14196900  0.77522432    -0.57800
O1227       O  0.59461020  0.11341916  0.82955593    -0.56900
O1228       O  0.46527834  0.96252213  0.74154729    -0.58100
C1229       C  0.40382521  0.90088073  0.72723142     0.74500
O1230       O  0.46691953  0.90443243  0.69663382    -0.59300
C1231       C  0.48633000  0.96929409  0.74258851     0.74500
C1232       C  0.45698943  0.90711255  0.79530183     0.76900
Cd1233     Cd  0.45215710  0.92162985  0.73452654     1.37500
O1234       O  0.41708086  0.92240026  0.72697026    -0.58100
O1235       O  0.44377658  0.91428048  0.79046147    -0.56900
C1236       C  0.46010102  0.90987110  0.67273785     0.76800
O1237       O  0.46655573  0.90460169  0.77139941    -0.59300
O1238       O  0.41291708  0.88940334  0.73270026    -0.57800
O1239       O  0.49127517  0.95428768  0.73841457    -0.57800
O1240       O  0.44996287  0.92038714  0.67780607    -0.56900
O1241       O  0.47450013  0.57454289  0.68595385    -0.58100
C1242       C  0.48879364  0.58877931  0.78442396     0.74500
O1243       O  0.53271603  0.57561479  0.72989590    -0.59300
C1244       C  0.48745166  0.57980023  0.66206549     0.74500
C1245       C  0.53331323  0.63861714  0.71445223     0.76900
Cd1246     Cd  0.50682006  0.59035703  0.72331748     1.37500
O1247       O  0.47557643  0.58027919  0.76107347    -0.58100
O1248       O  0.51172069  0.62726830  0.71701881    -0.56900
C1249       C  0.51637104  0.55506169  0.73321267     0.76800
O1250       O  0.54325319  0.62755156  0.71655301    -0.59300
O1251       O  0.51005666  0.59901012  0.77889131    -0.57800
O1252       O  0.50863871  0.58909613  0.66697139    -0.57800
O1253       O  0.49638743  0.55131464  0.73094497    -0.56900
O1254       O  0.56494446  0.45019773  0.71398378    -0.58100
C1255       C  0.56074531  0.45155510  0.81669629     0.74500
O1256       O  0.51297132  0.45979627  0.75797178    -0.59300
C1257       C  0.55001428  0.44597162  0.69334650     0.74500
C1258       C  0.51019047  0.39546481  0.76521918     0.76900
Cd1259     Cd  0.53793215  0.44375712  0.75804523     1.37500
O1260       O  0.57248675  0.45979863  0.79178996    -0.58100
O1261       O  0.53102202  0.40597923  0.75687356    -0.56900
C1262       C  0.52954190  0.48036433  0.75606900     0.76800
O1263       O  0.50119356  0.40736086  0.76887265    -0.59300
O1264       O  0.53924178  0.44012683  0.81385957    -0.57800
O1265       O  0.53020633  0.43991239  0.70317073    -0.57800
O1266       O  0.54941602  0.48364798  0.75706262    -0.56900
O1267       O  0.57985654  0.46133289  0.54329149    -0.58100
C1268       C  0.58761381  0.47505051  0.94354753     0.74500
O1269       O  0.57680161  0.51995752  0.49838957    -0.59300
C1270       C  0.57282715  0.46933984  0.56425671     0.74500
C1271       C  0.63611497  0.51915822  0.52112779     0.76900
Cd1272     Cd  0.58874275  0.49216658  0.50527298     1.37500
O1273       O  0.57679147  0.46170205  0.96611448    -0.58100
O1274       O  0.62520659  0.49775455  0.51791623    -0.56900
C1275       C  0.55594836  0.50478774  0.49347228     0.76800
O1276       O  0.62504566  0.52883599  0.51644338    -0.59300
O1277       O  0.60015619  0.49598968  0.95018765    -0.57800
O1278       O  0.57244941  0.48685904  0.55731651    -0.57800
O1279       O  0.55068169  0.48427962  0.49437934    -0.56900
O1280       O  0.46994970  0.57462710  0.93594380    -0.58100
C1281       C  0.46039483  0.55771508  0.53387895     0.74500
O1282       O  0.41646317  0.50541637  0.96418828    -0.59300
C1283       C  0.46350010  0.56261093  0.91116775     0.74500
C1284       C  0.48705150  0.52688731  0.97299576     0.76900
Cd1285     Cd  0.45442884  0.54082442  0.97088954     1.37500
O1286       O  0.47085159  0.57114230  0.51124111    -0.58100
O1287       O  0.49269741  0.54740065  0.97047732    -0.56900
C1288       C  0.40581448  0.51584160  0.96406942     0.76800
O1289       O  0.46575028  0.51209227  0.97330107    -0.59300
O1290       O  0.44624943  0.53712101  0.52691430    -0.57800
O1291       O  0.45340117  0.54128101  0.91451784    -0.57800
O1292       O  0.41765478  0.53720061  0.96838377    -0.56900
O1293       O  0.92570498  0.40999945  0.52179394    -0.58100
C1294       C  0.97023258  0.47981527  0.50833165     0.74500
O1295       O  0.90456891  0.45683869  0.98110649    -0.59300
C1296       C  0.90421060  0.39650088  0.52436046     0.74500
C1297       C  0.91349123  0.45232588  0.58026934     0.76900
Cd1298     Cd  0.92340940  0.44420092  0.51763222     1.37500
O1299       O  0.96452396  0.45912811  0.50912997    -0.58100
O1300       O  0.92517443  0.44348311  0.57440150    -0.56900
C1301       C  0.90782297  0.44786512  0.95717325     0.76800
O1302       O  0.90581809  0.45736921  0.55690345    -0.59300
O1303       O  0.95450047  0.48372459  0.51324072    -0.57800
O1304       O  0.89201095  0.40518138  0.52240784    -0.57800
O1305       O  0.91622290  0.43573740  0.96193930    -0.56900
O1306       O  0.06857683  0.57374334  0.98096465    -0.58100
C1307       C  0.13102532  0.63658141  0.97144608     0.74500
O1308       O  0.13228018  0.58349617  0.52290852    -0.59300
C1309       C  0.06281034  0.55307067  0.98315849     0.74500
C1310       C  0.12282113  0.57889942  0.92064500     0.76900
Cd1311     Cd  0.11017605  0.58866126  0.98049757     1.37500
O1312       O  0.10945330  0.62387549  0.97420368    -0.58100
O1313       O  0.11268705  0.58961915  0.92380824    -0.56900
C1314       C  0.12074737  0.58540846  0.54480910     0.76800
O1315       O  0.12731792  0.57221975  0.94560582    -0.59300
O1316       O  0.14239312  0.62711123  0.97443956    -0.57800
O1317       O  0.07882816  0.54921039  0.98232297    -0.57800
O1318       O  0.10612021  0.59008042  0.53659104    -0.71300
O1319       O  0.13551598  0.56698722  0.69266785    -0.58100
C1320       C  0.12747407  0.55407836  0.79382164     0.74500
O1321       O  0.07015606  0.50996624  0.73940811    -0.59300
C1322       C  0.12014073  0.55809446  0.67188543     0.74500
C1323       C  0.13137373  0.50887192  0.71740903     0.76900
Cd1324     Cd  0.11213021  0.53624331  0.73185129     1.37500
O1325       O  0.13220153  0.56731769  0.77072734    -0.58100
O1326       O  0.14285636  0.53035247  0.71972931    -0.56900
C1327       C  0.06635317  0.52589287  0.74409675     0.76800
O1328       O  0.10998514  0.49907564  0.72251694    -0.59300
O1329       O  0.11773450  0.53305737  0.78757569    -0.57800
O1330       O  0.10180766  0.53981737  0.67910888    -0.57800
O1331       O  0.08352348  0.54602292  0.74267415    -0.56900
O1332       O  0.90743964  0.46478333  0.80643052    -0.58100
C1333       C  0.91478704  0.47886956  0.70815127     0.74500
O1334       O  0.92946638  0.53373618  0.77389688    -0.59300
C1335       C  0.91416222  0.47704073  0.83096520     0.74500
C1336       C  0.97545577  0.50889268  0.76619812     0.76900
Cd1337     Cd  0.92863834  0.49746372  0.77011141     1.37500
O1338       O  0.91053767  0.46603415  0.73156227    -0.58100
O1339       O  0.95844351  0.48870038  0.76701039    -0.56900
C1340       C  0.90784500  0.52372957  0.77653523     0.76800
O1341       O  0.97109290  0.52456271  0.76833205    -0.59300
O1342       O  0.92408958  0.49993341  0.71379610    -0.57800
O1343       O  0.92742377  0.49825512  0.82708312    -0.57800
O1344       O  0.89652896  0.50219931  0.77450463    -0.56900
O1345       O  0.24305938  0.79764783  0.72382774    -0.58100
C1346       C  0.25567709  0.81200924  0.62472169     0.74500
O1347       O  0.24675487  0.85739789  0.67983180    -0.59300
C1348       C  0.24959078  0.81050725  0.74781511     0.74500
C1349       C  0.30789319  0.85529651  0.69649936     0.76900
Cd1350     Cd  0.25966941  0.83005975  0.68654639     1.37500
O1351       O  0.24599867  0.79889009  0.64791158    -0.58100
O1352       O  0.29625097  0.83381060  0.69347226    -0.56900
C1353       C  0.22564381  0.84191317  0.67984170     0.76800
O1354       O  0.29727306  0.86561701  0.69332094    -0.59300
O1355       O  0.26860653  0.83301471  0.63071732    -0.57800
O1356       O  0.26022504  0.83173164  0.74301516    -0.57800
O1357       O  0.22085327  0.82181123  0.68419819    -0.56900
O1358       O  0.13199332  0.90046611  0.60814738    -0.58100
C1359       C  0.12197258  0.88877071  0.70656135     0.74500
O1360       O  0.08135817  0.83265581  0.63998262    -0.59300
C1361       C  0.12617901  0.88724031  0.58462021     0.74500
C1362       C  0.15330774  0.85869126  0.65525353     0.76900
Cd1363     Cd  0.11829695  0.86911606  0.64640189     1.37500
O1364       O  0.13211670  0.90132029  0.68303279    -0.58100
O1365       O  0.15773356  0.87865056  0.65067197    -0.56900
C1366       C  0.06979135  0.84214307  0.63952016     0.76800
O1367       O  0.13231900  0.84291139  0.65467856    -0.59300
O1368       O  0.10890623  0.86764917  0.70149305    -0.57800
O1369       O  0.11746437  0.86629526  0.59011226    -0.57800
O1370       O  0.08072871  0.86353392  0.64350886    -0.56900
O1371       O  0.23949702  0.79503352  0.97316170    -0.58100
C1372       C  0.22440702  0.78439145  0.87542523     0.74500
O1373       O  0.16943928  0.74445750  0.94483428    -0.59300
C1374       C  0.22706558  0.78886786  0.99764752     0.74500
C1375       C  0.19548120  0.81553193  0.93085068     0.76900
Cd1376     Cd  0.20638934  0.78086487  0.93710636     1.37500
O1377       O  0.23760102  0.79408351  0.89849137    -0.58100
O1378       O  0.21561457  0.82004693  0.93476343    -0.56900
C1379       C  0.17866756  0.73266499  0.94405887     0.76800
O1380       O  0.17976335  0.79459475  0.93107461    -0.59300
O1381       O  0.20326205  0.77196658  0.88146447    -0.57800
O1382       O  0.20577469  0.77949823  0.99369168    -0.57800
O1383       O  0.20000772  0.74326525  0.93880533    -0.56900
O1384       O  0.13511159  0.90764845  0.85756591    -0.58100
C1385       C  0.14730029  0.91455797  0.95672952     0.74500
O1386       O  0.19388705  0.90822789  0.90533883    -0.59300
C1387       C  0.14818605  0.91207787  0.83397980     0.74500
C1388       C  0.19191759  0.96918508  0.88949024     0.76900
Cd1389     Cd  0.16655598  0.92074021  0.89568927     1.37500
O1390       O  0.13461000  0.90387164  0.93356956    -0.58100
O1391       O  0.17042086  0.95753284  0.89348365    -0.56900
C1392       C  0.17844735  0.88716460  0.90475689     0.76800
O1393       O  0.20219207  0.95837234  0.88946301    -0.59300
O1394       O  0.16802436  0.92929215  0.95084046    -0.57800
O1395       O  0.16906888  0.91978141  0.83938367    -0.57800
O1396       O  0.15847303  0.88223307  0.89832117    -0.56900
O1397       O  0.90501333  0.79137432  0.88992542    -0.58100
C1398       C  0.89134918  0.78571484  0.79073983     0.74500
O1399       O  0.84567621  0.73021486  0.84427420    -0.59300
C1400       C  0.89217448  0.78394787  0.91401759     0.74500
C1401       C  0.84739214  0.79340445  0.86024759     0.76900
Cd1402     Cd  0.87277925  0.77179688  0.85259335     1.37500
O1403       O  0.90431217  0.78952398  0.81390133    -0.58100
O1404       O  0.86883730  0.80429424  0.85572297    -0.56900
C1405       C  0.86119182  0.72553093  0.84529422     0.76800
O1406       O  0.83703936  0.77177418  0.86002196    -0.59300
O1407       O  0.87033419  0.77713727  0.79677007    -0.57800
O1408       O  0.87092015  0.77115004  0.90930728    -0.57800
O1409       O  0.88115402  0.74188054  0.85132620    -0.56900
O1410       O  0.80056339  0.56860822  0.85110249    -0.58100
C1411       C  0.81104346  0.57603487  0.75182797     0.74500
O1412       O  0.85955247  0.63076832  0.82071937    -0.59300
C1413       C  0.81371961  0.57391213  0.87442844     0.74500
C1414       C  0.85984185  0.56982900  0.80351303     0.76900
Cd1415     Cd  0.83220296  0.58907204  0.81254825     1.37500
O1416       O  0.79878178  0.57072915  0.77642003    -0.58100
O1417       O  0.83866877  0.55805112  0.80999455    -0.56900
C1418       C  0.84415244  0.63558089  0.81980074     0.76800
O1419       O  0.86892757  0.59128934  0.80240240    -0.59300
O1420       O  0.83244794  0.58698947  0.75568709    -0.57800
O1421       O  0.83494222  0.58460437  0.86860487    -0.57800
O1422       O  0.82411508  0.61923977  0.81418885    -0.56900
O1423       O  0.96091859  0.77284951  0.60846362    -0.58100
C1424       C  0.89067283  0.72506341  0.59322906     0.74500
O1425       O  0.91125619  0.79056518  0.63890682    -0.59300
C1426       C  0.97341924  0.79437160  0.61099147     0.74500
C1427       C  0.92032171  0.78721616  0.54047237     0.76900
Cd1428     Cd  0.92518997  0.77255604  0.60121112     1.37500
O1429       O  0.91167526  0.73153651  0.59178743    -0.58100
O1430       O  0.93337753  0.77981429  0.54500038    -0.56900
C1431       C  0.91580614  0.78301510  0.66288792     0.76800
O1432       O  0.91085544  0.78965297  0.56453735    -0.59300
O1433       O  0.88628083  0.74025069  0.59945692    -0.57800
O1434       O  0.96368906  0.80543026  0.60721355    -0.57800
O1435       O  0.92411383  0.77074834  0.65799091    -0.56900
O1436       O  0.74505497  0.58738536  0.55359037    -0.58100
C1437       C  0.81618400  0.63299471  0.56910241     0.74500
O1438       O  0.79109316  0.56702980  0.60149435    -0.59300
C1439       C  0.73174175  0.56586013  0.55354241     0.74500
C1440       C  0.78848112  0.57464769  0.00228138     0.76900
Cd1441     Cd  0.77980358  0.58606762  0.56333093     1.37500
O1442       O  0.79551098  0.62687861  0.57413323    -0.58100
O1443       O  0.77881533  0.58568822  0.00698623    -0.56900
C1444       C  0.78291780  0.57171962  0.62508565     0.76800
O1445       O  0.79428455  0.56828034  0.52634685    -0.59300
O1446       O  0.81965124  0.61763769  0.55998811    -0.57800
O1447       O  0.74069975  0.55430814  0.55928069    -0.57800
O1448       O  0.77198849  0.58132726  0.61960785    -0.56900
O1449       O  0.80646300  0.90005226  0.93802606    -0.58100
C1450       C  0.80150327  0.89617362  0.83602094     0.74500
O1451       O  0.78184606  0.83513019  0.88383495    -0.59300
C1452       C  0.79680791  0.88500788  0.95919059     0.74500
C1453       C  0.73868450  0.86174535  0.89930879     0.76900
Cd1454     Cd  0.78512955  0.87220417  0.89470432     1.37500
O1455       O  0.80561978  0.90736187  0.86139376    -0.58100
O1456       O  0.75575935  0.88183106  0.89679081    -0.56900
C1457       C  0.80328028  0.84357773  0.88545403     0.76800
O1458       O  0.74280337  0.84590316  0.89777285    -0.59300
O1459       O  0.79003316  0.87470838  0.83827726    -0.57800
O1460       O  0.78344363  0.86477892  0.94998532    -0.57800
O1461       O  0.81550095  0.86456094  0.89224869    -0.56900
O1462       O  0.58214721  0.80361569  0.89936979    -0.58100
C1463       C  0.59265220  0.81643020  0.99864457     0.74500
O1464       O  0.64474592  0.86167003  0.92876031    -0.59300
C1465       C  0.58619723  0.81637744  0.87590248     0.74500
C1466       C  0.58198328  0.86140129  0.94745097     0.76900
Cd1467     Cd  0.60271324  0.83530615  0.93680219     1.37500
O1468       O  0.58336595  0.80351608  0.97508711    -0.58100
O1469       O  0.57070057  0.83993576  0.94434113    -0.56900
C1470       C  0.64873319  0.84574543  0.92623505     0.76800
O1471       O  0.60357251  0.87151147  0.94412045    -0.59300
O1472       O  0.60652594  0.83733370  0.99315586    -0.57800
O1473       O  0.59614133  0.83754667  0.88126742    -0.57800
O1474       O  0.63175768  0.82570351  0.92963498    -0.56900
O1475       O  0.60222580  0.74857278  0.69320515    -0.58100
C1476       C  0.65024452  0.81775942  0.68376596     0.74500
O1477       O  0.58683701  0.79965874  0.64992585    -0.59300
C1478       C  0.58058092  0.73574202  0.69407347     0.74500
C1479       C  0.58873721  0.79128385  0.74897975     0.76900
Cd1480     Cd  0.60207725  0.78400294  0.68797431     1.37500
O1481       O  0.64302436  0.79676866  0.68067454    -0.58100
O1482       O  0.59977222  0.78155255  0.74478623    -0.56900
C1483       C  0.58924207  0.78983976  0.62631554     0.76800
O1484       O  0.58347003  0.79781909  0.72461525    -0.59300
O1485       O  0.63538844  0.82264255  0.69023307    -0.57800
O1486       O  0.56930011  0.74533244  0.69111827    -0.57800
O1487       O  0.59591347  0.77633632  0.63170502    -0.56900
O1488       O  0.78691974  0.95677268  0.63927952    -0.58100
C1489       C  0.74411919  0.88904845  0.66052488     0.74500
O1490       O  0.81475452  0.91989160  0.60680897    -0.59300
C1491       C  0.80735612  0.96930971  0.62947860     0.74500
C1492       C  0.80871947  0.92429359  0.70941129     0.76900
Cd1493     Cd  0.79094072  0.92356946  0.64830293     1.37500
O1494       O  0.75015019  0.90977152  0.65754593    -0.58100
O1495       O  0.80108709  0.93680454  0.70270802    -0.56900
C1496       C  0.79794013  0.90826665  0.58874292     0.76800
O1497       O  0.81031531  0.91307383  0.68694397    -0.59300
O1498       O  0.75970522  0.88464246  0.65771393    -0.57800
O1499       O  0.81946563  0.96053869  0.62891736    -0.57800
O1500       O  0.77849901  0.90313365  0.59894339    -0.56900
O1501       O  0.46709046  0.22937582  0.60149385    -0.58100
C1502       C  0.46057809  0.22312890  0.99836769     0.74500
O1503       O  0.44390792  0.16487188  0.55041181    -0.59300
C1504       C  0.45522404  0.21484825  0.62255302     0.74500
C1505       C  0.40000526  0.19191483  0.56180276     0.76900
Cd1506     Cd  0.44591256  0.20152541  0.55841442     1.37500
O1507       O  0.46606157  0.23528423  0.52302866    -0.58100
O1508       O  0.41732478  0.21197105  0.56081394    -0.56900
C1509       C  0.46529181  0.17376970  0.55393915     0.76800
O1510       O  0.40376005  0.17583290  0.55940605    -0.59300
O1511       O  0.44888433  0.20177596  0.50207061    -0.57800
O1512       O  0.44074593  0.19487154  0.61342238    -0.57800
O1513       O  0.47687995  0.19484331  0.56041949    -0.56900
O1514       O  0.24411645  0.13400424  0.56277302    -0.58100
C1515       C  0.25242527  0.14531081  0.66185242     0.74500
O1516       O  0.30625751  0.19175835  0.59130325    -0.59300
C1517       C  0.24804848  0.14701676  0.53966455     0.74500
C1518       C  0.24683360  0.19440019  0.61090175     0.76900
Cd1519     Cd  0.26459179  0.16557829  0.60073629     1.37500
O1520       O  0.24348547  0.13310465  0.63764427    -0.58100
O1521       O  0.23432055  0.17307559  0.60665990    -0.56900
C1522       C  0.31026845  0.17587852  0.58877716     0.76800
O1523       O  0.26831480  0.20304819  0.60928337    -0.59300
O1524       O  0.26714191  0.16616514  0.65743632    -0.57800
O1525       O  0.25773746  0.16806890  0.54559655    -0.57800
O1526       O  0.29351073  0.15587966  0.59332212    -0.56900
O1527       O  0.30024935  0.12635055  0.84451273    -0.58100
C1528       C  0.23731125  0.06508306  0.86109820     0.74500
O1529       O  0.24146642  0.12779209  0.88779353    -0.59300
C1530       C  0.30707334  0.14734101  0.84588419     0.74500
C1531       C  0.24513693  0.11704587  0.78898874     0.76900
Cd1532     Cd  0.25892415  0.11297503  0.85068259     1.37500
O1533       O  0.25889695  0.07781703  0.85849347    -0.58100
O1534       O  0.25279299  0.10438224  0.79468551    -0.56900
C1535       C  0.24767639  0.12180749  0.91181546     0.76800
O1536       O  0.24195880  0.12651355  0.81238401    -0.59300
O1537       O  0.22586842  0.07439880  0.85698695    -0.57800
O1538       O  0.29179977  0.15199502  0.85009407    -0.57800
O1539       O  0.25861008  0.11205232  0.90706260    -0.56900
O1540       O  0.44520153  0.28737322  0.80396389    -0.58100
C1541       C  0.40122740  0.21903130  0.82441453     0.74500
O1542       O  0.47113855  0.24829888  0.77036687    -0.59300
C1543       C  0.46610524  0.30014524  0.79627941     0.74500
C1544       C  0.46520281  0.25106893  0.87168494     0.76900
Cd1545     Cd  0.44814549  0.25333030  0.81161155     1.37500
O1546       O  0.40730430  0.23973862  0.82101837    -0.58100
O1547       O  0.45850578  0.26456652  0.86633873    -0.56900
C1548       C  0.45462862  0.23893698  0.75132132     0.76800
O1549       O  0.46626161  0.24020134  0.84832762    -0.59300
O1550       O  0.41677956  0.21458899  0.82162349    -0.57800
O1551       O  0.47806403  0.29119634  0.79650441    -0.57800
O1552       O  0.43577467  0.23596521  0.76067395    -0.56900
O1553       O  0.79745816  0.23144189  0.85430525    -0.58100
C1554       C  0.79439117  0.22164385  0.75460433     0.74500
O1555       O  0.79772442  0.17361671  0.82219852    -0.59300
C1556       C  0.78823275  0.21808112  0.87737220     0.74500
C1557       C  0.73591144  0.17503605  0.80525310     0.76900
Cd1558     Cd  0.78422305  0.20057618  0.81501429     1.37500
O1559       O  0.80114807  0.23390616  0.77916804    -0.58100
O1560       O  0.74741678  0.19642337  0.80933513    -0.56900
C1561       C  0.81871875  0.18897342  0.81877268     0.76800
O1562       O  0.74671425  0.16481104  0.80708897    -0.59300
O1563       O  0.78313443  0.20028977  0.75845446    -0.57800
O1564       O  0.77601003  0.19705982  0.87109797    -0.57800
O1565       O  0.82306843  0.20870200  0.81261792    -0.56900
O1566       O  0.91585443  0.13261778  0.88423912    -0.58100
C1567       C  0.92353909  0.14409652  0.78630823     0.74500
O1568       O  0.91413630  0.19009413  0.83539369    -0.59300
C1569       C  0.92029864  0.14521051  0.90824185     0.74500
C1570       C  0.97702377  0.19195315  0.85613868     0.76900
Cd1571     Cd  0.92848479  0.16433645  0.84690681     1.37500
O1572       O  0.91271028  0.13189181  0.80979389    -0.58100
O1573       O  0.96624268  0.17050408  0.85291701    -0.56900
C1574       C  0.89320653  0.17460093  0.83898079     0.76800
O1575       O  0.96537319  0.20127022  0.85375435    -0.59300
O1576       O  0.93795707  0.16491192  0.79165990    -0.57800
O1577       O  0.92777672  0.16604792  0.90353007    -0.57800
O1578       O  0.88919526  0.15536677  0.84742312    -0.56900
O1579       O  0.80408869  0.23602762  0.52899904    -0.58100
C1580       C  0.82073874  0.24986634  0.62749886     0.74500
O1581       O  0.86472693  0.24033458  0.57034451    -0.59300
C1582       C  0.81647272  0.24272779  0.00443368     0.74500
C1583       C  0.86190057  0.30115199  0.55359474     0.76900
Cd1584     Cd  0.83746284  0.25334117  0.56473312     1.37500
O1585       O  0.80717084  0.24142799  0.60450749    -0.58100
O1586       O  0.84058249  0.28941098  0.55907232    -0.56900
C1587       C  0.84908607  0.21933468  0.57044228     0.76800
O1588       O  0.87265192  0.29084256  0.55481538    -0.59300
O1589       O  0.84190598  0.26128988  0.62108467    -0.57800
O1590       O  0.83789797  0.25367625  0.50822632    -0.57800
O1591       O  0.82888813  0.21463280  0.56647943    -0.56900
O1592       O  0.90976812  0.12669212  0.55899914    -0.58100
C1593       C  0.89603537  0.12011624  0.65870550     0.74500
O1594       O  0.85087996  0.12633721  0.58936653    -0.59300
C1595       C  0.89689813  0.11786629  0.53538665     0.74500
C1596       C  0.85073044  0.06446313  0.60039280     0.76900
Cd1597     Cd  0.87757023  0.11283553  0.59664476     1.37500
O1598       O  0.90920489  0.12662142  0.63492975    -0.58100
O1599       O  0.87214368  0.07558968  0.59564464    -0.56900
C1600       C  0.86644222  0.14730112  0.59099004     0.76800
O1601       O  0.84110642  0.07585247  0.60246686    -0.59300
O1602       O  0.87484949  0.11041673  0.65345020    -0.57800
O1603       O  0.87560987  0.10591708  0.54064225    -0.57800
O1604       O  0.88644575  0.15183745  0.59623119    -0.56900
O1605       O  0.24199371  0.46819574  0.64345963    -0.58100
C1606       C  0.22915155  0.45880836  0.74256727     0.74500
O1607       O  0.17227654  0.44280217  0.68872661    -0.59300
C1608       C  0.22885307  0.46335158  0.62020352     0.74500
C1609       C  0.20148101  0.40096171  0.67238464     0.76900
Cd1610     Cd  0.21014387  0.44640440  0.68113625     1.37500
O1611       O  0.24209486  0.46741804  0.71876433    -0.58100
O1612       O  0.22114939  0.41797183  0.67812518    -0.56900
C1613       C  0.18092109  0.46422056  0.68945505     0.76800
O1614       O  0.18528593  0.40467084  0.67187280    -0.59300
O1615       O  0.20820986  0.44459563  0.73743013    -0.57800
O1616       O  0.20759550  0.45208559  0.62583684    -0.57800
O1617       O  0.20238678  0.47658473  0.68558809    -0.56900
O1618       O  0.14344623  0.24640472  0.67840526    -0.58100
C1619       C  0.15677171  0.25316029  0.57897648     0.74500
O1620       O  0.20292311  0.30753010  0.64741500    -0.59300
C1621       C  0.15587505  0.25001020  0.70211643     0.74500
C1622       C  0.20291931  0.24493286  0.63517570     0.76900
Cd1623     Cd  0.17606553  0.26540376  0.64092018     1.37500
O1624       O  0.14395454  0.24522087  0.60300018    -0.58100
O1625       O  0.18135434  0.23380381  0.63816637    -0.56900
C1626       C  0.18704549  0.31172564  0.64785294     0.76800
O1627       O  0.21295365  0.26653211  0.63583593    -0.59300
O1628       O  0.17793618  0.26636473  0.58391687    -0.57800
O1629       O  0.17707961  0.25915854  0.69697603    -0.57800
O1630       O  0.16698446  0.29484989  0.64408891    -0.56900
O1631       O  0.29573864  0.45060762  0.93789505    -0.58100
C1632       C  0.22725485  0.40479562  0.92343324     0.74500
O1633       O  0.24805643  0.47114766  0.96831168    -0.59300
C1634       C  0.30918485  0.47207949  0.93945955     0.74500
C1635       C  0.25662528  0.46686093  0.87027687     0.76900
Cd1636     Cd  0.26131053  0.45240444  0.93101180     1.37500
O1637       O  0.24825680  0.41223630  0.91867774    -0.58100
O1638       O  0.27220322  0.46298873  0.87609777    -0.56900
C1639       C  0.25344315  0.46434139  0.99229183     0.76800
O1640       O  0.24471428  0.46647081  0.89337807    -0.59300
O1641       O  0.22247764  0.41912406  0.93308917    -0.57800
O1642       O  0.30037514  0.48403994  0.93599018    -0.57800
O1643       O  0.26213708  0.45242073  0.98751027    -0.56900
O1644       O  0.08638331  0.26272102  0.88454838    -0.58100
C1645       C  0.15594849  0.31146053  0.89831625     0.74500
O1646       O  0.13919630  0.24845438  0.92821042    -0.59300
C1647       C  0.07389906  0.24112673  0.88321570     0.74500
C1648       C  0.13029491  0.25178628  0.82962116     0.76900
Cd1649     Cd  0.12238534  0.26333267  0.89153868     1.37500
O1650       O  0.13499669  0.30360752  0.90429910    -0.58100
O1651       O  0.11997151  0.26215093  0.83465077    -0.56900
C1652       C  0.12816254  0.24864213  0.95205366     0.76800
O1653       O  0.13724691  0.24648609  0.85354513    -0.59300
O1654       O  0.16080731  0.29736558  0.88789121    -0.57800
O1655       O  0.08385524  0.23028541  0.88708493    -0.57800
O1656       O  0.11322210  0.25360072  0.94725520    -0.56900
C1657       C  0.18603917  0.37338785  0.92338198    -0.13700
C1658       C  0.20908684  0.38085621  0.91737649     0.08500
C1659       C  0.21442913  0.36549966  0.90441209    -0.13700
C1660       C  0.19708517  0.34308860  0.89773137    -0.13700
C1661       C  0.17403479  0.33555484  0.90391072     0.08500
C1662       C  0.16868812  0.35095245  0.91674961    -0.13700
H1663       H  0.18139029  0.38490010  0.93320797     0.12500
H1664       H  0.23200478  0.37082008  0.89931272     0.12500
H1665       H  0.20176151  0.33159523  0.88792011     0.12500
H1666       H  0.15111578  0.34562054  0.92187759     0.12500
C1667       C  0.16251279  0.25090762  0.52158975    -0.13700
C1668       C  0.14784815  0.24803554  0.54666641     0.08500
C1669       C  0.12544199  0.24222654  0.54022624    -0.13700
C1670       C  0.11845424  0.24106131  0.50921236    -0.13700
C1671       C  0.13358582  0.24515256  0.98415659     0.08500
C1672       C  0.15537145  0.24922736  0.99065986    -0.13700
H1673       H  0.17982515  0.25521725  0.52590707     0.12500
H1674       H  0.11379760  0.23990595  0.55912505     0.12500
H1675       H  0.10154867  0.23788870  0.50485982     0.12500
H1676       H  0.16743605  0.25257053  0.97188419     0.12500
C1677       C  0.15949839  0.24452220  0.75907590    -0.13700
C1678       C  0.14666486  0.24547881  0.73444320     0.08500
C1679       C  0.12672901  0.24549215  0.74155054    -0.13700
C1680       C  0.12083896  0.24650819  0.77269535    -0.13700
C1681       C  0.13447832  0.24698417  0.79729101     0.08500
C1682       C  0.15330367  0.24501053  0.79025926    -0.13700
H1683       H  0.17491364  0.24442957  0.75421545     0.12500
H1684       H  0.11656413  0.24630049  0.72305253     0.12500
H1685       H  0.10608436  0.24778905  0.77751974     0.12500
H1686       H  0.16404944  0.24528594  0.80877929     0.12500
C1687       C  0.22911132  0.46828490  0.53236372    -0.13700
C1688       C  0.24935622  0.46914692  0.52448880     0.08500
C1689       C  0.26438467  0.47160977  0.54832762    -0.13700
C1690       C  0.25862363  0.47181242  0.57972159    -0.13700
C1691       C  0.23745135  0.46893076  0.58773638     0.08500
C1692       C  0.22306647  0.46790814  0.56381348    -0.13700
H1693       H  0.21723353  0.46624518  0.51433508     0.12500
H1694       H  0.28014946  0.47237884  0.54267567     0.12500
H1695       H  0.26996048  0.47253097  0.59767830     0.12500
H1696       H  0.20663475  0.46568670  0.56943207     0.12500
C1697       C  0.26042083  0.47236943  0.78214766    -0.13700
C1698       C  0.23758569  0.46453699  0.77494326     0.08500
C1699       C  0.22209443  0.46057152  0.79935011    -0.13700
C1700       C  0.22894699  0.46325679  0.83046792    -0.13700
C1701       C  0.25131176  0.46948366  0.83783861     0.08500
C1702       C  0.26717568  0.47455178  0.81343863    -0.13700
H1703       H  0.27267468  0.47557448  0.76370691     0.12500
H1704       H  0.20442288  0.45470337  0.79439260     0.12500
H1705       H  0.21631816  0.45901633  0.84876419     0.12500
H1706       H  0.28451825  0.47929582  0.81856075     0.12500
C1707       C  0.21642170  0.37490918  0.66628237    -0.13700
C1708       C  0.19788603  0.37816356  0.66611370     0.08500
C1709       C  0.17602842  0.35957095  0.65910559    -0.13700
C1710       C  0.17271316  0.33816766  0.65270829    -0.13700
C1711       C  0.19117141  0.33482472  0.65313199     0.08500
C1712       C  0.21310202  0.35345373  0.65983964    -0.13700
H1713       H  0.23352517  0.38895897  0.67142979     0.12500
H1714       H  0.16145782  0.36154757  0.65858893     0.12500
H1715       H  0.15557589  0.32415348  0.64762589     0.12500
H1716       H  0.22762358  0.35140014  0.66041433     0.12500
C1717       C  0.87610726  0.20601669  0.57926091    -0.13700
C1718       C  0.85371025  0.20101714  0.57553140     0.08500
C1719       C  0.83543119  0.17820975  0.57758596    -0.13700
C1720       C  0.83948349  0.16073972  0.58294042    -0.13700
C1721       C  0.86188564  0.16571422  0.58644273     0.08500
C1722       C  0.88015801  0.18853946  0.58468103    -0.13700
H1723       H  0.89049437  0.22341784  0.57796465     0.12500
H1724       H  0.81793619  0.17383491  0.57509397     0.12500
H1725       H  0.82508736  0.14334308  0.58425692     0.12500
H1726       H  0.89764293  0.19289236  0.58721393     0.12500
C1727       C  0.01322600  0.19331516  0.86706650    -0.13700
C1728       C  0.00185467  0.20500323  0.86285488     0.08500
C1729       C  0.01432885  0.22885806  0.86584192    -0.13700
C1730       C  0.03776103  0.24073468  0.87269443    -0.13700
C1731       C  0.04905188  0.22893902  0.87685974     0.08500
C1732       C  0.03648744  0.20510800  0.87398736    -0.13700
H1733       H  0.00411790  0.17493207  0.86509189     0.12500
H1734       H  0.00600256  0.23830566  0.86284838     0.12500
H1735       H  0.04703655  0.25911978  0.87466128     0.12500
H1736       H  0.04466241  0.19550483  0.87692590     0.12500
C1737       C  0.89686671  0.11619608  0.74678344    -0.13700
C1738       C  0.91842995  0.13522599  0.75394300     0.08500
C1739       C  0.93355843  0.14774014  0.72936110    -0.13700
C1740       C  0.92679257  0.14203618  0.69817635    -0.13700
C1741       C  0.90462121  0.12402424  0.69110721     0.08500
C1742       C  0.88993279  0.11080537  0.71565553    -0.13700
H1743       H  0.88480216  0.10637041  0.76524748     0.12500
H1744       H  0.95026946  0.16253749  0.73427073     0.12500
H1745       H  0.93842250  0.15248933  0.67968984     0.12500
H1746       H  0.87278371  0.09671604  0.71080606     0.12500
C1747       C  0.89836743  0.11440457  0.94742181    -0.13700
C1748       C  0.91671479  0.13633823  0.94032232     0.08500
C1749       C  0.93057504  0.15062885  0.96462487    -0.13700
C1750       C  0.92534340  0.14363330  0.49574523    -0.13700
C1751       C  0.90576867  0.12253120  0.50304166     0.08500
C1752       C  0.89272664  0.10765599  0.97863330    -0.13700
H1753       H  0.88751636  0.10310216  0.92900526     0.12500
H1754       H  0.94498510  0.16754758  0.95958711     0.12500
H1755       H  0.93559252  0.15541958  0.51414371     0.12500
H1756       H  0.87755631  0.09125730  0.48374887     0.12500
C1757       C  0.82012126  0.25179834  0.71612831    -0.13700
C1758       C  0.79963108  0.23125934  0.72276508     0.08500
C1759       C  0.78503948  0.21853719  0.69805896    -0.13700
C1760       C  0.79125919  0.22561023  0.66713817    -0.13700
C1761       C  0.81245537  0.24525517  0.66023335     0.08500
C1762       C  0.82665078  0.25859877  0.68501595    -0.13700
H1763       H  0.83167795  0.26184010  0.73481201     0.12500
H1764       H  0.76909758  0.20267916  0.70261470     0.12500
H1765       H  0.78007053  0.21493169  0.64852925     0.12500
H1766       H  0.84311750  0.27382166  0.68028528     0.12500
C1767       C  0.77944198  0.21166294  0.93471637    -0.13700
C1768       C  0.79276429  0.22620155  0.91011297     0.08500
C1769       C  0.81238231  0.24730677  0.91726493    -0.13700
C1770       C  0.81952885  0.25300181  0.94822850    -0.13700
C1771       C  0.80689530  0.23795429  0.97265827     0.08500
C1772       C  0.78633399  0.21762451  0.96582735    -0.13700
H1773       H  0.76422212  0.19527186  0.92981254     0.12500
H1774       H  0.82300718  0.25878886  0.89880118     0.12500
H1775       H  0.83537017  0.26888618  0.95301700     0.12500
H1776       H  0.77635024  0.20576506  0.98431084     0.12500
C1777       C  0.86019339  0.20197437  0.81540669    -0.13700
C1778       C  0.83750407  0.18469682  0.82247421     0.08500
C1779       C  0.83331253  0.16404071  0.83457646    -0.13700
C1780       C  0.85145867  0.16086767  0.83994550    -0.13700
C1781       C  0.87418922  0.17828640  0.83335559     0.08500
C1782       C  0.87833194  0.19879818  0.82075900    -0.13700
H1783       H  0.86397733  0.21809056  0.80597129     0.12500
H1784       H  0.81606275  0.15047867  0.84039037     0.12500
H1785       H  0.84768566  0.14479030  0.84951271     0.12500
H1786       H  0.89559026  0.21241459  0.81510566     0.12500
C1787       C  0.33763157  0.18856927  0.84132819    -0.13700
C1788       C  0.33140103  0.16564609  0.84212238     0.08500
C1789       C  0.34845594  0.16051922  0.83812400    -0.13700
C1790       C  0.37118592  0.17792814  0.83276150    -0.13700
C1791       C  0.37729316  0.20079925  0.83115844     0.08500
C1792       C  0.36031977  0.20595060  0.83581513    -0.13700
H1793       H  0.32487707  0.19307516  0.84442921     0.12500
H1794       H  0.34419276  0.14304397  0.83873921     0.12500
H1795       H  0.38393534  0.17343507  0.82944062     0.12500
H1796       H  0.36452976  0.22340165  0.83493069     0.12500
C1797       C  0.24955697  0.23194920  0.61977756    -0.13700
C1798       C  0.23643067  0.20802301  0.61776776     0.08500
C1799       C  0.21272914  0.19669913  0.62269864    -0.13700
C1800       C  0.20224833  0.20885791  0.62900196    -0.13700
C1801       C  0.21509994  0.23274818  0.63040883     0.08500
C1802       C  0.23893948  0.24425759  0.62595517    -0.13700
H1803       H  0.26790147  0.24110280  0.61624388     0.12500
H1804       H  0.20213162  0.17829618  0.62161770     0.12500
H1805       H  0.18387814  0.19941821  0.63236661     0.12500
H1806       H  0.24927621  0.26267283  0.62690338     0.12500
C1807       C  0.24650713  0.14979634  0.71834520    -0.13700
C1808       C  0.24642110  0.13608221  0.69383383     0.08500
C1809       C  0.24248886  0.11450102  0.70065428    -0.13700
C1810       C  0.24060350  0.10756533  0.73180465    -0.13700
C1811       C  0.24198256  0.12185957  0.75646320     0.08500
C1812       C  0.24397187  0.14260629  0.74937620    -0.13700
H1813       H  0.24928837  0.16643333  0.71353125     0.12500
H1814       H  0.24233533  0.10365765  0.68208093     0.12500
H1815       H  0.23907498  0.09147537  0.73667124     0.12500
H1816       H  0.24518548  0.15399138  0.76789109     0.12500
C1817       C  0.24076445  0.11758080  0.99947545    -0.13700
C1818       C  0.24324179  0.13854449  0.50709508     0.08500
C1819       C  0.24434260  0.15271535  0.98283200    -0.13700
C1820       C  0.24411163  0.14653157  0.95149884    -0.13700
C1821       C  0.24330313  0.12634665  0.94403416     0.08500
C1822       C  0.24105764  0.11166173  0.96821544    -0.13700
H1823       H  0.24006252  0.10641939  0.51765773     0.12500
H1824       H  0.24635678  0.16902513  0.48808970     0.12500
H1825       H  0.24604407  0.15818193  0.93322168     0.12500
H1826       H  0.24037718  0.09596496  0.96293584     0.12500
C1827       C  0.43790196  0.21220897  0.70686424    -0.13700
C1828       C  0.45669127  0.23184175  0.71956522     0.08500
C1829       C  0.47599011  0.24550583  0.70065683    -0.13700
C1830       C  0.47594376  0.24004693  0.66890820    -0.13700
C1831       C  0.45684277  0.22054086  0.65615394     0.08500
C1832       C  0.43808937  0.20646081  0.67565849    -0.13700
H1833       H  0.42282400  0.20149078  0.72101508     0.12500
H1834       H  0.49055590  0.26089988  0.71003033     0.12500
H1835       H  0.49059356  0.25114480  0.65431094     0.12500
H1836       H  0.42306917  0.19137657  0.66648279     0.12500
C1837       C  0.46678276  0.21943000  0.94169287    -0.13700
C1838       C  0.46658115  0.23279404  0.96652052     0.08500
C1839       C  0.46954140  0.25403613  0.95993578    -0.13700
C1840       C  0.47073431  0.26087166  0.92883839    -0.13700
C1841       C  0.46943843  0.24675898  0.90395454     0.08500
C1842       C  0.46841533  0.22643599  0.91073986    -0.13700
H1843       H  0.46468569  0.20303629  0.94616700     0.12500
H1844       H  0.46940443  0.26462540  0.97866111     0.12500
H1845       H  0.47149314  0.27662975  0.92424437     0.12500
H1846       H  0.46726106  0.21515873  0.89210067     0.12500
C1847       C  0.37378407  0.20618194  0.57141991    -0.13700
C1848       C  0.37680459  0.18777106  0.56661042     0.08500
C1849       C  0.35768033  0.16550699  0.56823276    -0.13700
C1850       C  0.33605956  0.16172570  0.57518523    -0.13700
C1851       C  0.33313234  0.18012390  0.58071525     0.08500
C1852       C  0.35215017  0.20239817  0.57833204    -0.13700
H1853       H  0.38822878  0.22355895  0.57038312     0.12500
H1854       H  0.35947666  0.15101019  0.56462560     0.12500
H1855       H  0.32164518  0.14434377  0.57650319     0.12500
H1856       H  0.35037475  0.21688065  0.58225476     0.12500
C1857       C  0.83917677  0.00503799  0.60630387    -0.13700
C1858       C  0.81710410  0.99307084  0.61943941     0.08500
C1859       C  0.80520490  0.00429229  0.62375236    -0.13700
C1860       C  0.81567976  0.02741530  0.61627870    -0.13700
C1861       C  0.83817279  0.03954583  0.60445322     0.08500
C1862       C  0.84956795  0.02797727  0.59888994    -0.13700
H1863       H  0.84869429  0.99680214  0.60236495     0.12500
H1864       H  0.78812113  0.99540164  0.63371879     0.12500
H1865       H  0.80653989  0.03596526  0.62079068     0.12500
H1866       H  0.86685156  0.03682035  0.58957637     0.12500
C1867       C  0.68143377  0.85884354  0.68263958    -0.13700
C1868       C  0.67451745  0.83582656  0.67918752     0.08500
C1869       C  0.69072033  0.83045469  0.66979603    -0.13700
C1870       C  0.71337349  0.84778445  0.66384188    -0.13700
C1871       C  0.72019675  0.87080126  0.66696773     0.08500
C1872       C  0.70402199  0.87615091  0.67648186    -0.13700
H1873       H  0.66930642  0.86351499  0.68976870     0.12500
H1874       H  0.68584049  0.81288576  0.66671141     0.12500
H1875       H  0.72549725  0.84317138  0.65643991     0.12500
H1876       H  0.70883915  0.89372320  0.67924288     0.12500
C1877       C  0.59010598  0.82253545  0.55567626    -0.13700
C1878       C  0.58809941  0.80796347  0.53109258     0.08500
C1879       C  0.58366697  0.78622040  0.53812264    -0.13700
C1880       C  0.58292790  0.77981930  0.56932123    -0.13700
C1881       C  0.58596076  0.79481954  0.59392091     0.08500
C1882       C  0.58876622  0.81591837  0.58681279    -0.13700
H1883       H  0.59336220  0.83934447  0.55078112     0.12500
H1884       H  0.58208543  0.77472100  0.51954671     0.12500
H1885       H  0.58075428  0.76344742  0.57420340     0.12500
H1886       H  0.59128710  0.82785424  0.60527127     0.12500
C1887       C  0.58045760  0.78707410  0.83656509    -0.13700
C1888       C  0.58143866  0.80743019  0.84356366     0.08500
C1889       C  0.58151926  0.82078088  0.81887627    -0.13700
C1890       C  0.58212065  0.81461121  0.78773622    -0.13700
C1891       C  0.58323786  0.79533642  0.78091949     0.08500
C1892       C  0.58164445  0.78123212  0.80553231    -0.13700
H1893       H  0.58048192  0.77652183  0.85511267     0.12500
H1894       H  0.58225076  0.83655567  0.82367621     0.12500
H1895       H  0.58331703  0.82573347  0.76914192     0.12500
H1896       H  0.58228932  0.76616462  0.80082510     0.12500
C1897       C  0.81732588  0.91135737  0.50473788    -0.13700
C1898       C  0.79955470  0.89037742  0.99304827     0.08500
C1899       C  0.78287587  0.87462707  0.01393650    -0.13700
C1900       C  0.78309041  0.88018231  0.54539411    -0.13700
C1901       C  0.80034810  0.90134533  0.55694901     0.08500
C1902       C  0.81788383  0.91668609  0.53665368    -0.13700
H1903       H  0.83038348  0.92378598  0.98913361     0.12500
H1904       H  0.76891331  0.85834913  0.00567020     0.12500
H1905       H  0.76934670  0.86815518  0.56059571     0.12500
H1906       H  0.83120058  0.93325230  0.54508426     0.12500
C1907       C  0.81290845  0.89551697  0.78081108    -0.13700
C1908       C  0.80893504  0.90697763  0.80492395     0.08500
C1909       C  0.80931379  0.92695551  0.79786772    -0.13700
C1910       C  0.81125080  0.93393081  0.76665366    -0.13700
C1911       C  0.81321289  0.92121297  0.74222618     0.08500
C1912       C  0.81528701  0.90270344  0.74982920    -0.13700
H1913       H  0.81299595  0.88022923  0.78574613     0.12500
H1914       H  0.80635041  0.93611875  0.81608123     0.12500
H1915       H  0.80970373  0.94836024  0.76149217     0.12500
H1916       H  0.81690122  0.89263192  0.73161931     0.12500
C1917       C  0.69697205  0.83538360  0.91155673    -0.13700
C1918       C  0.71541554  0.85738363  0.90479492     0.08500
C1919       C  0.71175596  0.87557285  0.90510408    -0.13700
C1920       C  0.69017398  0.87189362  0.91224569    -0.13700
C1921       C  0.67177427  0.84993282  0.91922948     0.08500
C1922       C  0.67538378  0.83170132  0.91867492    -0.13700
H1923       H  0.69928723  0.82107256  0.91175091     0.12500
H1924       H  0.72565837  0.89275105  0.90007478     0.12500
H1925       H  0.68789201  0.88622572  0.91226508     0.12500
H1926       H  0.66151476  0.81454087  0.92388716     0.12500
C1927       C  0.84913717  0.69524169  0.59176094    -0.13700
C1928       C  0.87194336  0.70128551  0.58744641     0.08500
C1929       C  0.87633342  0.68474042  0.57650808    -0.13700
C1930       C  0.85818696  0.66258447  0.57000375    -0.13700
C1931       C  0.83537269  0.65661237  0.57442258     0.08500
C1932       C  0.83107877  0.67317508  0.58536574    -0.13700
H1933       H  0.84518770  0.70762312  0.60010615     0.12500
H1934       H  0.89372608  0.68895615  0.57277830     0.12500
H1935       H  0.86201388  0.65010167  0.56171237     0.12500
H1936       H  0.81372646  0.66905870  0.58917016     0.12500
C1937       C  0.81401945  0.56900555  0.69515145    -0.13700
C1938       C  0.80136297  0.57056608  0.71999969     0.08500
C1939       C  0.78074885  0.56920775  0.71352979    -0.13700
C1940       C  0.77391246  0.56819462  0.68249728    -0.13700
C1941       C  0.78728590  0.56792372  0.65755181     0.08500
C1942       C  0.80689953  0.56741369  0.66423964    -0.13700
H1943       H  0.82991055  0.56986085  0.69957204     0.12500
H1944       H  0.77071244  0.57039774  0.73228147     0.12500
H1945       H  0.75869758  0.56860488  0.67795101     0.12500
H1946       H  0.81758523  0.56734721  0.64549900     0.12500
C1947       C  0.78464513  0.56822785  0.91453291    -0.13700
C1948       C  0.80514822  0.56947732  0.90702115     0.08500
C1949       C  0.81888934  0.56976054  0.93135804    -0.13700
C1950       C  0.81272422  0.56984958  0.96268796    -0.13700
C1951       C  0.79303419  0.57023344  0.97004386     0.08500
C1952       C  0.77880042  0.56889856  0.94574830    -0.13700
H1953       H  0.77387306  0.56823022  0.89626984     0.12500
H1954       H  0.83484164  0.57081073  0.92612930     0.12500
H1955       H  0.82403349  0.57103515  0.98102913     0.12500
H1956       H  0.76349987  0.56915126  0.95089531     0.12500
C1957       C  0.81156508  0.79423785  0.86866081    -0.13700
C1958       C  0.83551542  0.80572268  0.86613546     0.08500
C1959       C  0.84849215  0.82945817  0.87013743    -0.13700
C1960       C  0.83787418  0.84148074  0.87669234    -0.13700
C1961       C  0.81396868  0.83015053  0.87916886     0.08500
C1962       C  0.80084474  0.80639057  0.87496503    -0.13700
H1963       H  0.80116266  0.77593131  0.86574100     0.12500
H1964       H  0.86697556  0.83881812  0.86847405     0.12500
H1965       H  0.84847832  0.85977759  0.87962495     0.12500
H1966       H  0.78237691  0.79723566  0.87668097     0.12500
C1967       C  0.88647696  0.78984625  0.73366371    -0.13700
C1968       C  0.89980896  0.78948476  0.75809467     0.08500
C1969       C  0.91978618  0.78965041  0.75068896    -0.13700
C1970       C  0.92541306  0.78847329  0.71951602    -0.13700
C1971       C  0.91149444  0.78768793  0.69514929     0.08500
C1972       C  0.89245777  0.78926207  0.70237573    -0.13700
H1973       H  0.87096670  0.78970574  0.73877510     0.12500
H1974       H  0.93029780  0.78924882  0.76901643     0.12500
H1975       H  0.94029181  0.78745085  0.71445632     0.12500
H1976       H  0.88146919  0.78864944  0.68396233     0.12500
C1977       C  0.92326092  0.79390282  0.95250620    -0.13700
C1978       C  0.90118506  0.78908967  0.94619323     0.08500
C1979       C  0.88681039  0.78693685  0.97128743    -0.13700
C1980       C  0.89385065  0.78819317  0.50217002    -0.13700
C1981       C  0.91519282  0.79111455  0.50850184     0.08500
C1982       C  0.93009406  0.79458210  0.98344187    -0.13700
H1983       H  0.93466471  0.79568398  0.93355827     0.12500
H1984       H  0.86976221  0.78341886  0.96701622     0.12500
H1985       H  0.88199181  0.78535779  0.52102144     0.12500
H1986       H  0.94666343  0.79690271  0.98774222     0.12500
C1987       C  0.83461432  0.68426674  0.83225816    -0.13700
C1988       C  0.85672141  0.70244435  0.83909299     0.08500
C1989       C  0.87487442  0.69861206  0.83889990    -0.13700
C1990       C  0.87095907  0.67698891  0.83225785    -0.13700
C1991       C  0.84880808  0.65878006  0.82560667     0.08500
C1992       C  0.83070254  0.66266397  0.82561888    -0.13700
H1993       H  0.82034895  0.68673246  0.83201993     0.12500
H1994       H  0.89217090  0.71236195  0.84383196     0.12500
H1995       H  0.88521507  0.67450700  0.83248065     0.12500
H1996       H  0.81340317  0.64893383  0.82066570     0.12500
C1997       C  0.19150349  0.00476933  0.88268002    -0.13700
C1998       C  0.20400459  0.99402871  0.88419963     0.08500
C1999       C  0.22774349  0.00701650  0.87899817    -0.13700
C2000       C  0.23864554  0.03017277  0.87163296    -0.13700
C2001       C  0.22598461  0.04069440  0.86914990     0.08500
C2002       C  0.20235143  0.02781826  0.87517295    -0.13700
H2003       H  0.17319385  0.99525299  0.88672650     0.12500
H2004       H  0.23781492  0.99921426  0.88013637     0.12500
H2005       H  0.25693969  0.03976882  0.86749834     0.12500
H2006       H  0.19218724  0.03552265  0.87392548     0.12500
C2007       C  0.16888916  0.82866540  0.91806232    -0.13700
C2008       C  0.19092156  0.83388113  0.92552969     0.08500
C2009       C  0.20890494  0.85687078  0.92648987    -0.13700
C2010       C  0.20496693  0.87426694  0.91971808    -0.13700
C2011       C  0.18299588  0.86900628  0.91172651     0.08500
C2012       C  0.16496554  0.84603386  0.91123441    -0.13700
H2013       H  0.15472412  0.81113877  0.91708621     0.12500
H2014       H  0.22609211  0.86142111  0.93221982     0.12500
H2015       H  0.21912003  0.89180105  0.92061225     0.12500
H2016       H  0.14777288  0.84143498  0.90544161     0.12500
C2017       C  0.03337077  0.84107485  0.63254956    -0.13700
C2018       C  0.04489624  0.82934532  0.63375023     0.08500
C2019       C  0.03263252  0.80577801  0.62789999    -0.13700
C2020       C  0.00933699  0.79427125  0.62050509    -0.13700
C2021       C  0.99800125  0.80617856  0.61865051     0.08500
C2022       C  0.01023660  0.82965348  0.62502996    -0.13700
H2023       H  0.04231308  0.85923378  0.63700750     0.12500
H2024       H  0.04108693  0.79631929  0.62866589     0.12500
H2025       H  0.00025946  0.77612223  0.61596908     0.12500
H2026       H  0.00193287  0.83926011  0.62418952     0.12500
C2027       C  0.15140315  0.92463431  0.01345023    -0.13700
C2028       C  0.13912137  0.90908535  0.98928421     0.08500
C2029       C  0.12118939  0.88705216  0.99688076    -0.13700
C2030       C  0.11656491  0.88022771  0.52808677    -0.13700
C2031       C  0.12950054  0.89546104  0.55220590     0.08500
C2032       C  0.14643678  0.91794322  0.54473901    -0.13700
H2033       H  0.16540209  0.94170054  0.00809741     0.12500
H2034       H  0.11167305  0.87468054  0.97867393     0.12500
H2035       H  0.10327790  0.86282307  0.53332496     0.12500
H2036       H  0.15660836  0.92996867  0.56295701     0.12500
C2037       C  0.11092331  0.88564258  0.76297081    -0.13700
C2038       C  0.12661623  0.89773178  0.73872825     0.08500
C2039       C  0.14844098  0.91615307  0.74615657    -0.13700
C2040       C  0.15512592  0.92123047  0.77732673    -0.13700
C2041       C  0.13988227  0.90839205  0.80158296     0.08500
C2042       C  0.11742910  0.89115182  0.79425674    -0.13700
H2043       H  0.09399906  0.87130274  0.75771091     0.12500
H2044       H  0.16090000  0.92556412  0.72788417     0.12500
H2045       H  0.17248633  0.93475780  0.78246532     0.12500
H2046       H  0.10539198  0.88107567  0.81261159     0.12500
C2047       C  0.22970225  0.78399044  0.58502347    -0.13700
C2048       C  0.25075329  0.80369603  0.59211270     0.08500
C2049       C  0.26528094  0.81705492  0.56748306    -0.13700
C2050       C  0.25830405  0.81140040  0.53632873    -0.13700
C2051       C  0.23646863  0.79268164  0.52950034     0.08500
C2052       C  0.22252063  0.77868290  0.55403565    -0.13700
H2053       H  0.21810487  0.77351182  0.60353117     0.12500
H2054       H  0.28159788  0.83238095  0.57238438     0.12500
H2055       H  0.26934316  0.82244046  0.51778410     0.12500
H2056       H  0.20565954  0.76404904  0.54931393     0.12500
C2057       C  0.22513731  0.78066917  0.78724046    -0.13700
C2058       C  0.24488969  0.80167024  0.78002095     0.08500
C2059       C  0.25929133  0.81536581  0.80433531    -0.13700
C2060       C  0.25346473  0.80876795  0.83546987    -0.13700
C2061       C  0.23285814  0.78861432  0.84286200     0.08500
C2062       C  0.21900838  0.77430187  0.81850267    -0.13700
H2063       H  0.21378171  0.76985876  0.76885218     0.12500
H2064       H  0.27472151  0.83157522  0.79928531     0.12500
H2065       H  0.26436706  0.82015455  0.85378265     0.12500
H2066       H  0.20300586  0.75865502  0.82365664     0.12500
C2067       C  0.18423670  0.82855038  0.67501408    -0.13700
C2068       C  0.20728542  0.84655450  0.67438842     0.08500
C2069       C  0.21242398  0.86855090  0.66733690    -0.13700
C2070       C  0.19486792  0.87243063  0.66094218    -0.13700
C2071       C  0.17182170  0.85437811  0.66141019     0.08500
C2072       C  0.16671067  0.83242068  0.66859554    -0.13700
H2073       H  0.17971000  0.81137200  0.68030854     0.12500
H2074       H  0.23000040  0.88271963  0.66652975     0.12500
H2075       H  0.19935343  0.88958662  0.65558243     0.12500
H2076       H  0.14915062  0.81821695  0.66932449     0.12500
C2077       C  0.87287775  0.52370553  0.79155458    -0.13700
C2078       C  0.89604514  0.53608146  0.78271797     0.08500
C2079       C  0.90757258  0.55994847  0.78109244    -0.13700
C2080       C  0.89598917  0.57116424  0.78806367    -0.13700
C2081       C  0.87278765  0.55865178  0.79699374     0.08500
C2082       C  0.86143588  0.53483448  0.79868460    -0.13700
H2083       H  0.86355208  0.50531823  0.79330621     0.12500
H2084       H  0.92545357  0.56988902  0.77439700     0.12500
H2085       H  0.90512283  0.58954148  0.78638304     0.12500
H2086       H  0.84357250  0.52468002  0.80542764     0.12500
C2087       C  0.13182952  0.47265828  0.71036350    -0.13700
C2088       C  0.14297538  0.49653350  0.70902799     0.08500
C2089       C  0.16609090  0.50921230  0.69990354    -0.13700
C2090       C  0.17799459  0.49851476  0.69300696    -0.13700
C2091       C  0.16719299  0.47476257  0.69500011     0.08500
C2092       C  0.14388021  0.46184057  0.70343438    -0.13700
H2093       H  0.11400246  0.46244140  0.71724486     0.12500
H2094       H  0.17517841  0.52759602  0.69831278     0.12500
H2095       H  0.19586833  0.50899999  0.68643607     0.12500
H2096       H  0.13511477  0.44348902  0.70519423     0.12500
C2097       C  0.03992909  0.53979632  0.75585529    -0.13700
C2098       C  0.04319376  0.52153676  0.75079954     0.08500
C2099       C  0.02414331  0.49922315  0.75199553    -0.13700
C2100       C  0.00228154  0.49524342  0.75762936    -0.13700
C2101       C  0.99893338  0.51347562  0.76214176     0.08500
C2102       C  0.01801865  0.53581141  0.76143029    -0.13700
H2103       H  0.05430582  0.55722239  0.75521092     0.12500
H2104       H  0.02609393  0.48482971  0.74829593     0.12500
H2105       H  0.98791226  0.47780900  0.75799229     0.12500
H2106       H  0.01599218  0.55018464  0.76482258     0.12500
C2107       C  0.16611409  0.67332357  0.95729374    -0.13700
C2108       C  0.14264717  0.66111861  0.96438332     0.08500
C2109       C  0.13069289  0.67245838  0.96381411    -0.13700
C2110       C  0.14218881  0.69573637  0.95671425    -0.13700
C2111       C  0.16574189  0.70789232  0.94987126     0.08500
C2112       C  0.17748468  0.69637233  0.95004809    -0.13700
H2113       H  0.17576730  0.66504198  0.95725374     0.12500
H2114       H  0.11255234  0.66339572  0.96905357     0.12500
H2115       H  0.13274857  0.70423250  0.95684383     0.12500
H2116       H  0.19564006  0.70524027  0.94492625     0.12500
C2117       C  0.10467721  0.57636429  0.59873081    -0.13700
C2118       C  0.12279469  0.58119828  0.57823868     0.08500
C2119       C  0.14139985  0.58035153  0.58976385    -0.13700
C2120       C  0.14145422  0.57420003  0.62107364    -0.13700
C2121       C  0.12263412  0.56825597  0.64079699     0.08500
C2122       C  0.10445884  0.56966894  0.62942228    -0.13700
H2123       H  0.09004322  0.57675413  0.59064969     0.12500
H2124       H  0.15557791  0.58398007  0.57448878     0.12500
H2125       H  0.15555869  0.57296656  0.62937700     0.12500
H2126       H  0.08976596  0.56509154  0.64420150     0.12500
C2127       C  0.13278379  0.58944208  0.86459989    -0.13700
C2128       C  0.12838559  0.57421309  0.88910434     0.08500
C2129       C  0.12695512  0.55361326  0.88239625    -0.13700
C2130       C  0.12812394  0.54758683  0.85134103    -0.13700
C2131       C  0.13124058  0.56229949  0.82661208     0.08500
C2132       C  0.13447198  0.58366394  0.83368941    -0.13700
H2133       H  0.13408535  0.60550954  0.86925758     0.12500
H2134       H  0.12346943  0.54157239  0.90089416     0.12500
H2135       H  0.12552148  0.53097479  0.84656417     0.12500
H2136       H  0.13679073  0.59530420  0.81517554     0.12500
C2137       C  0.90700149  0.36206826  0.53210487    -0.13700
C2138       C  0.89369001  0.37194198  0.53032142     0.08500
C2139       C  0.87005209  0.35832420  0.53581867    -0.13700
C2140       C  0.85993845  0.33543101  0.54344524    -0.13700
C2141       C  0.87317867  0.32553506  0.54568584     0.08500
C2142       C  0.89680184  0.33899087  0.53964747    -0.13700
H2143       H  0.92528553  0.37220934  0.52797058     0.12500
H2144       H  0.85934325  0.36543184  0.53468016     0.12500
H2145       H  0.84165773  0.32548157  0.54769640     0.12500
H2146       H  0.90736707  0.33173649  0.54094526     0.12500
C2147       C  0.90891766  0.47638095  0.62004104    -0.13700
C2148       C  0.90993129  0.45710623  0.61283255     0.08500
C2149       C  0.90994997  0.44369378  0.63730347    -0.13700
C2150       C  0.90989638  0.44995894  0.66848137    -0.13700
C2151       C  0.91045764  0.47008283  0.67571186     0.08500
C2152       C  0.90950304  0.48300512  0.65124667    -0.13700
H2153       H  0.90903385  0.48704302  0.60154835     0.12500
H2154       H  0.91068402  0.42871117  0.63228131     0.12500
H2155       H  0.91076383  0.43977204  0.68686487     0.12500
H2156       H  0.90994202  0.49861213  0.65622154     0.12500
C2157       C  0.90304295  0.43886722  0.89995551    -0.13700
C2158       C  0.90396290  0.45266372  0.92499879     0.08500
C2159       C  0.90501957  0.47305633  0.91849903    -0.13700
C2160       C  0.90720347  0.48048716  0.88761120    -0.13700
C2161       C  0.90775907  0.46735973  0.86271478     0.08500
C2162       C  0.90461947  0.44602766  0.86902003    -0.13700
H2163       H  0.90224379  0.42306466  0.90434400     0.12500
H2164       H  0.90587269  0.48406268  0.93733863     0.12500
H2165       H  0.90940070  0.49693704  0.88324635     0.12500
H2166       H  0.90499563  0.43563057  0.85019639     0.12500
C2167       C  0.99911981  0.52108800  0.49945299    -0.13700
C2168       C  0.99384466  0.49851222  0.50145907     0.08500
C2169       C  0.01117315  0.49397293  0.49603455    -0.13700
C2170       C  0.03344296  0.51169821  0.98925670    -0.13700
C2171       C  0.03882583  0.53431841  0.98769729     0.08500
C2172       C  0.02140736  0.53883009  0.99259662    -0.13700
H2173       H  0.98603596  0.52506634  0.50330255     0.12500
H2174       H  0.00755796  0.47673377  0.49719386     0.12500
H2175       H  0.04653244  0.50770411  0.98563286     0.12500
H2176       H  0.02507968  0.55609702  0.99168513     0.12500
C2177       C  0.37086632  0.51710579  0.95505015    -0.13700
C2178       C  0.38095316  0.50413444  0.95844548     0.08500
C2179       C  0.36723781  0.48032504  0.95538496    -0.13700
C2180       C  0.34383971  0.46975834  0.94907749    -0.13700
C2181       C  0.33387348  0.48285771  0.94553881     0.08500
C2182       C  0.34764631  0.50661754  0.94861127    -0.13700
H2183       H  0.38098228  0.53549370  0.95710418     0.12500
H2184       H  0.37458101  0.46992125  0.95781426     0.12500
H2185       H  0.33357618  0.45138246  0.94694643     0.12500
H2186       H  0.34047245  0.51717346  0.94612897     0.12500
C2187       C  0.67072671  0.51935417  0.53739102    -0.13700
C2188       C  0.66046953  0.53168033  0.53003028     0.08500
C2189       C  0.67369356  0.55559014  0.53123295    -0.13700
C2190       C  0.69688548  0.56690594  0.53930731    -0.13700
C2191       C  0.70709406  0.55444909  0.54643584     0.08500
C2192       C  0.69369645  0.53057246  0.54553076    -0.13700
H2193       H  0.66099895  0.50090780  0.03679314     0.12500
H2194       H  0.66619410  0.56548859  0.52566713     0.12500
H2195       H  0.70685167  0.58534499  0.53970079     0.12500
H2196       H  0.70102451  0.52046649  0.55079275     0.12500
C2197       C  0.52793015  0.53830461  0.97757184    -0.13700
C2198       C  0.50464761  0.52095720  0.97632621     0.08500
C2199       C  0.49847321  0.49825421  0.47987459    -0.13700
C2200       C  0.51521319  0.49303852  0.48510795    -0.13700
C2201       C  0.53844388  0.51043684  0.48706628     0.08500
C2202       C  0.54464475  0.53310126  0.98297136    -0.13700
H2203       H  0.53323205  0.55598966  0.97490611     0.12500
H2204       H  0.48069135  0.48455391  0.47905993     0.12500
H2205       H  0.50991786  0.47537891  0.48807393     0.12500
H2206       H  0.56239914  0.54683296  0.98414114     0.12500
C2207       C  0.47478647  0.35838855  0.78129884    -0.13700
C2208       C  0.49777235  0.37070527  0.77135313     0.08500
C2209       C  0.50971882  0.35942918  0.76894573    -0.13700
C2210       C  0.49924026  0.33657805  0.77688580    -0.13700
C2211       C  0.47644049  0.32425783  0.78732841     0.08500
C2212       C  0.46415824  0.33526227  0.78913925    -0.13700
H2213       H  0.46519406  0.36667803  0.78344547     0.12500
H2214       H  0.52745119  0.36839013  0.76143985     0.12500
H2215       H  0.50915264  0.32860207  0.77504281     0.12500
H2216       H  0.44651287  0.32611291  0.79702143     0.12500
C2217       C  0.57539375  0.45178980  0.64672688    -0.13700
C2218       C  0.55510910  0.44890719  0.65942734     0.08500
C2219       C  0.53979780  0.45033786  0.63954462    -0.13700
C2220       C  0.54518395  0.45585565  0.60811389    -0.13700
C2221       C  0.56566647  0.45941939  0.59561042     0.08500
C2222       C  0.58051312  0.45675229  0.61480826    -0.13700
H2223       H  0.58747840  0.45078688  0.66154870     0.12500
H2224       H  0.52406455  0.44827989  0.64859767     0.12500
H2225       H  0.53364467  0.45805123  0.59370557     0.12500
H2226       H  0.59660951  0.45983035  0.60556164     0.12500
C2227       C  0.59778844  0.48182667  0.88651885    -0.13700
C2228       C  0.58432692  0.46698414  0.91079843     0.08500
C2229       C  0.56537355  0.44553612  0.90314827    -0.13700
C2230       C  0.55863676  0.43994707  0.87205958    -0.13700
C2231       C  0.57098447  0.45550695  0.84799527     0.08500
C2232       C  0.59126228  0.47601540  0.85524670    -0.13700
H2233       H  0.61257631  0.49844960  0.89178967     0.12500
H2234       H  0.55472735  0.43374001  0.92131954     0.12500
H2235       H  0.54304526  0.42390328  0.86697211     0.12500
H2236       H  0.60105457  0.48825766  0.83705467     0.12500
C2237       C  0.56975234  0.67639866  0.70552121    -0.13700
C2238       C  0.54585125  0.66348096  0.70915496     0.08500
C2239       C  0.53364098  0.67450414  0.70747166    -0.13700
C2240       C  0.54498831  0.69788851  0.70234675    -0.13700
C2241       C  0.56885928  0.71087730  0.69878061     0.08500
C2242       C  0.58117577  0.69993982  0.70043715    -0.13700
H2243       H  0.57957889  0.66833468  0.70663830     0.12500
H2244       H  0.51520771  0.66504775  0.71016410     0.12500
H2245       H  0.53502330  0.70581703  0.70136036     0.12500
H2246       H  0.59961166  0.70956693  0.69782949     0.12500
C2247       C  0.45099412  0.55088475  0.59102567    -0.13700
C2248       C  0.46534730  0.56514756  0.56686656     0.08500
C2249       C  0.48587474  0.58524358  0.57464801    -0.13700
C2250       C  0.49263228  0.59023571  0.60583304    -0.13700
C2251       C  0.47876143  0.57551707  0.62984448     0.08500
C2252       C  0.45754124  0.55617583  0.62235208    -0.13700
H2253       H  0.43506784  0.53525939  0.58563297     0.12500
H2254       H  0.49729644  0.59648552  0.55654338     0.12500
H2255       H  0.50900078  0.60537912  0.61116845     0.12500
H2256       H  0.44660539  0.54459039  0.64052686     0.12500
C2257       C  0.45269569  0.55973826  0.85534001    -0.13700
C2258       C  0.46783922  0.57243888  0.87958349     0.08500
C2259       C  0.48829674  0.59283173  0.87246493    -0.13700
C2260       C  0.49452569  0.59917946  0.84121193    -0.13700
C2261       C  0.48009715  0.58548887  0.81683641     0.08500
C2262       C  0.45864412  0.56636605  0.82422777    -0.13700
H2263       H  0.43670987  0.54403691  0.86038342     0.12500
H2264       H  0.50020734  0.60288109  0.89081991     0.12500
H2265       H  0.51113919  0.61408760  0.83604644     0.12500
H2266       H  0.44723436  0.55551927  0.80590607     0.12500
C2267       C  0.54509686  0.52173428  0.74622459    -0.13700
C2268       C  0.52618018  0.49964800  0.75180972     0.08500
C2269       C  0.50416285  0.49609593  0.75161731    -0.13700
C2270       C  0.50110096  0.51416445  0.74566821    -0.13700
C2271       C  0.51998629  0.53618752  0.73969994     0.08500
C2272       C  0.54203097  0.53981691  0.74024538    -0.13700
H2273       H  0.56229670  0.52499597  0.74602297     0.12500
H2274       H  0.48927303  0.47930254  0.75576105     0.12500
H2275       H  0.48387741  0.51084052  0.74561307     0.12500
H2276       H  0.55688994  0.55657571  0.73579798     0.12500
C2277       C  0.36584319  0.86571394  0.71742727    -0.13700
C2278       C  0.37913205  0.88951873  0.72044896     0.08500
C2279       C  0.36883985  0.90216483  0.71535921    -0.13700
C2280       C  0.34568058  0.89115859  0.70736418    -0.13700
C2281       C  0.33249668  0.86734160  0.70412225     0.08500
C2282       C  0.34283832  0.85477515  0.70930188    -0.13700
H2283       H  0.37328941  0.85549850  0.72099251     0.12500
H2284       H  0.37870527  0.92055437  0.71740286     0.12500
H2285       H  0.33811833  0.90125291  0.70369077     0.12500
H2286       H  0.33312150  0.83638579  0.70716666     0.12500
C2287       C  0.67786343  0.16505515  0.78662927    -0.13700
C2288       C  0.66438394  0.14128137  0.78354394     0.08500
C2289       C  0.67464036  0.12846190  0.78725402    -0.13700
C2290       C  0.69794201  0.13929560  0.79438257    -0.13700
C2291       C  0.71125862  0.16308200  0.79803587     0.08500
C2292       C  0.70097010  0.17580014  0.79388080    -0.13700
H2293       H  0.67047767  0.17540640  0.78393639     0.12500
H2294       H  0.66462012  0.11008552  0.78501006     0.12500
H2295       H  0.70548225  0.12910136  0.79722216     0.12500
H2296       H  0.71079238  0.19417327  0.79625820     0.12500
C2297       C  0.49892145  0.01013958  0.75150286    -0.13700
C2298       C  0.50429250  0.99323942  0.74903888     0.08500
C2299       C  0.52699754  0.99923692  0.75378624    -0.13700
C2300       C  0.54403171  0.02171924  0.76062086    -0.13700
C2301       C  0.53870287  0.03865063  0.76279441     0.08500
C2302       C  0.51596836  0.03263818  0.75831081    -0.13700
H2303       H  0.48157156  0.00599078  0.74807188     0.12500
H2304       H  0.53161163  0.98651941  0.75230244     0.12500
H2305       H  0.56139638  0.02587567  0.76393664     0.12500
H2306       H  0.51138435  0.04538288  0.75968647     0.12500
C2307       C  0.51192775  0.16077951  0.54714205    -0.13700
C2308       C  0.49985571  0.13779811  0.53795913     0.08500
C2309       C  0.47592786  0.12618664  0.53545033    -0.13700
C2310       C  0.46440665  0.13762310  0.54123795    -0.13700
C2311       C  0.47666014  0.16076637  0.54986914     0.08500
C2312       C  0.50048402  0.17207426  0.55313532    -0.13700
H2313       H  0.53033665  0.17013913  0.54966022     0.12500
H2314       H  0.46620143  0.10842680  0.02856113     0.12500
H2315       H  0.44602648  0.12848814  0.53853269     0.12500
H2316       H  0.51043684  0.18986800  0.55984135     0.12500
C2317       C  0.58912460  0.12638904  0.62327438    -0.13700
C2318       C  0.56767987  0.12303737  0.61648942     0.08500
C2319       C  0.55395384  0.12297523  0.64113596    -0.13700
C2320       C  0.56107318  0.12515444  0.67215892    -0.13700
C2321       C  0.58178673  0.12685442  0.67909344     0.08500
C2322       C  0.59601289  0.12802789  0.65436032    -0.13700
H2323       H  0.59998146  0.12647004  0.60467758     0.12500
H2324       H  0.53739631  0.12058302  0.63644593     0.12500
H2325       H  0.54971649  0.12405146  0.69075849     0.12500
H2326       H  0.61205796  0.12929095  0.65910664     0.12500
C2327       C  0.55165975  0.12552552  0.90411490    -0.13700
C2328       C  0.56628675  0.12777009  0.92849032     0.08500
C2329       C  0.58809262  0.13201440  0.92103134    -0.13700
C2330       C  0.59435834  0.13196855  0.88983610    -0.13700
C2331       C  0.57914367  0.12822946  0.86559255     0.08500
C2332       C  0.55816341  0.12602043  0.87285235    -0.13700
H2333       H  0.53476205  0.12229301  0.90924179     0.12500
H2334       H  0.59968245  0.13377501  0.93932176     0.12500
H2335       H  0.61069606  0.13382305  0.88469932     0.12500
H2336       H  0.54613568  0.12301528  0.85451680     0.12500
C2337       C  0.53478960  0.87169123  0.96845602    -0.13700
C2338       C  0.54637864  0.89554274  0.97010909     0.08500
C2339       C  0.57013134  0.90835977  0.96468418    -0.13700
C2340       C  0.58194491  0.89742210  0.95732154    -0.13700
C2341       C  0.57013503  0.87353861  0.95514799     0.08500
C2342       C  0.54648516  0.86085501  0.96105239    -0.13700
H2343       H  0.51651786  0.86129212  0.97255509     0.12500
H2344       H  0.57949598  0.92677779  0.96578239     0.12500
H2345       H  0.60021004  0.90760792  0.95311250     0.12500
H2346       H  0.53689153  0.84242822  0.95990043     0.12500
C2347       C  0.48928741  0.90314320  0.60177135    -0.13700
C2348       C  0.47652445  0.90451755  0.57739940     0.08500
C2349       C  0.45665345  0.90456118  0.58475861    -0.13700
C2350       C  0.45069724  0.90512306  0.61596283    -0.13700
C2351       C  0.46422489  0.90515259  0.64036958     0.08500
C2352       C  0.48299830  0.90314732  0.63305574    -0.13700
H2353       H  0.50467374  0.90305396  0.59664354     0.12500
H2354       H  0.44659968  0.90575781  0.56644235     0.12500
H2355       H  0.43601052  0.90647699  0.62100403     0.12500
H2356       H  0.49365993  0.90310088  0.65144784     0.12500
C2357       C  0.49104628  0.90952391  0.86511725    -0.13700
C2358       C  0.47663420  0.90765080  0.88999694     0.08500
C2359       C  0.45440872  0.90229745  0.88345538    -0.13700
C2360       C  0.44738851  0.90068706  0.85241035    -0.13700
C2361       C  0.46226098  0.90376946  0.82748426     0.08500
C2362       C  0.48381044  0.90729040  0.83413857    -0.13700
H2363       H  0.50821192  0.91345180  0.86961633     0.12500
H2364       H  0.44299550  0.90075452  0.90224851     0.12500
H2365       H  0.43069039  0.89798839  0.84787195     0.12500
H2366       H  0.49566921  0.90989275  0.81539856     0.12500
C2367       C  0.50322540  0.01839946  0.50645058    -0.13700
C2368       C  0.52541820  0.03743386  0.50999188     0.08500
C2369       C  0.54408582  0.03444227  0.00785257    -0.13700
C2370       C  0.54065956  0.01290891  0.00214221    -0.13700
C2371       C  0.51848594  0.99390164  0.99838334     0.08500
C2372       C  0.49979772  0.99685462  0.50072675    -0.13700
H2373       H  0.48853626  0.02017065  0.50793630     0.12500
H2374       H  0.56142632  0.04880041  0.01045938     0.12500
H2375       H  0.55535765  0.01115470  0.00061931     0.12500
H2376       H  0.48246460  0.98248837  0.49808905     0.12500
loop_ 
_geom_bond_atom_site_label_1 
_geom_bond_atom_site_label_2 
_geom_bond_distance 
_geom_bond_site_symmetry_2 
_ccdc_geom_bond_type 
O1            C4   1.270       .  A
O1        Cd1194   2.474   1_554  S
C2           O11   1.265       .  A
C2            O7   1.270       .  A
C2         C1170   1.477       .  S
O3            C9   1.271       .  A
O3           Cd6   2.493       .  S
C4           O12   1.265       .  A
C4         C1160   1.476       .  S
C5           O10   1.272       .  A
C5            O8   1.267       .  A
C5         C1150   1.481       .  S
Cd6          O13   2.433       .  S
Cd6          O11   2.435       .  S
Cd6           O7   2.492       .  S
Cd6          O10   2.493       .  S
Cd6           O8   2.411       .  S
Cd6        O1189   2.474       .  S
Cd6        O1200   2.444       .  S
C9           O13   1.263       .  A
C9         C1183   1.481       .  S
O12       Cd1194   2.444   1_554  S
O14          C17   1.270       .  A
O14         Cd19   2.488       .  S
C15          O24   1.265       .  A
C15          O20   1.270       .  A
C15        C1140   1.477       .  S
O16          C22   1.271       .  A
O16         Cd19   2.497       .  S
C17          O25   1.265       .  A
C17        C1130   1.476       .  S
C18          O23   1.272       .  A
C18          O21   1.268       .  A
C18        C1120   1.479       .  S
Cd19         O26   2.430       .  S
Cd19         O25   2.431       .  S
Cd19         O23   2.483       .  S
Cd19         O21   2.411       .  S
Cd19       O1212   2.437   1_554  S
Cd19       O1208   2.476   1_554  S
O20       Cd1207   2.476       .  S
C22          O26   1.263       .  A
C22        C1180   1.481       .  S
O24       Cd1207   2.437       .  S
O27          C30   1.270       .  A
O27         Cd32   2.465       .  S
C28          O37   1.262       .  A
C28          O33   1.268       .  A
C28        C1113   1.476       .  S
O29          C35   1.268       .  A
O29         Cd32   2.491       .  S
C30          O38   1.269       .  A
C30        C1100   1.477       .  S
C31          O36   1.268       .  A
C31          O34   1.264       .  A
C31        C1133   1.476       .  S
Cd32         O39   2.429       .  S
Cd32         O38   2.415       .  S
Cd32         O37   2.435       .  S
Cd32         O33   2.477       .  S
Cd32         O36   2.479       .  S
Cd32         O34   2.439       .  S
C35          O39   1.263       .  A
C35        C1143   1.472       .  S
O40          C43   1.268       .  A
O40         Cd45   2.489       .  S
C41          O50   1.269       .  A
C41          O46   1.270       .  A
C41        C1090   1.480       .  S
O42          C48   1.269       .  A
O42         Cd45   2.505       .  S
C43          O51   1.262       .  A
C43        C1110   1.478       .  S
C44          O49   1.269       .  A
C44          O47   1.265       .  A
C44        C1173   1.478       .  S
Cd45         O52   2.428       .  S
Cd45         O51   2.442       .  S
Cd45         O50   2.432       .  S
Cd45         O46   2.470       .  S
Cd45         O49   2.482       .  S
Cd45         O47   2.447       .  S
C48          O52   1.262       .  A
C48        C1163   1.477       .  S
O53          C56   1.270       .  A
O53         Cd58   2.486       .  S
C54          O63   1.266       .  A
C54          O59   1.271       .  A
C54        C1073   1.474       .  S
O55          C61   1.272       .  A
O55         Cd58   2.498       .  S
C56          O64   1.265       .  A
C56        C1063   1.472       .  S
C57          O62   1.272       .  A
C57          O60   1.267       .  A
C57        C1050   1.479       .  S
Cd58         O65   2.424       .  S
Cd58         O64   2.413       .  S
Cd58         O63   2.428       .  S
Cd58         O59   2.465       .  S
Cd58         O62   2.485       .  S
Cd58         O60   2.409       .  S
C61          O65   1.264       .  A
C61        C1083   1.482       .  S
O66          C69   1.273       .  A
O66         Cd71   2.503       .  S
C67          O76   1.264       .  A
C67          O72   1.271       .  A
C67        C1043   1.474       .  S
O68          C74   1.272       .  A
O68         Cd71   2.490       .  S
C69          O77   1.265       .  A
C69        C1030   1.478       .  S
C70          O75   1.273       .  A
C70          O73   1.267       .  A
C70        C1020   1.479       .  S
Cd71         O78   2.436       .  S
Cd71         O77   2.392       .  S
Cd71         O76   2.409       .  S
Cd71         O72   2.497       .  S
Cd71         O75   2.494       .  S
Cd71         O73   2.396       .  S
C74          O78   1.265       .  A
C74        C1080   1.482       .  S
O79          C82   1.268       .  A
O79         Cd84   2.495       .  S
C80          O89   1.265       .  A
C80          O85   1.269       .  A
C80        C1040   1.477       .  S
O81          C87   1.272       .  A
O81         Cd84   2.479   1_556  S
C82          O90   1.264       .  A
C82        C1033   1.468       .  S
C83          O88   1.271       .  A
C83          O86   1.264       .  A
C83        C1000   1.477       .  S
Cd84         O91   2.429   1_554  S
Cd84         O90   2.422       .  S
Cd84         O88   2.493       .  S
Cd84         O86   2.398       .  S
Cd84       O1277   2.445   1_554  S
Cd84       O1273   2.460   1_554  S
O85       Cd1272   2.460       .  S
C87          O91   1.266       .  A
C87        C1013   1.480       .  S
O89       Cd1272   2.445       .  S
O92          C95   1.270       .  A
O92         Cd97   2.496       .  S
C93         O102   1.265       .  A
C93          O98   1.269       .  A
C93        C1060   1.477       .  S
O94         C100   1.272       .  A
O94         Cd97   2.481       .  S
C95         O103   1.264       .  A
C95        C1070   1.472       .  S
C96         O101   1.270       .  A
C96          O99   1.263       .  A
C96        C1010   1.479       .  S
Cd97        O104   2.414       .  S
Cd97        O103   2.412       .  S
Cd97        O101   2.492       .  S
Cd97         O99   2.426       .  S
Cd97       O1290   2.438       .  S
Cd97       O1286   2.474       .  S
O98       Cd1285   2.474   1_554  S
C100        O104   1.268       .  A
C100        C990   1.479       .  S
O102      Cd1285   2.438   1_554  S
O105        C108   1.270       .  A
O105       Cd110   2.461       .  S
C106        O115   1.263       .  A
C106        O111   1.269       .  A
C106        C980   1.476       .  S
O107        C113   1.269       .  A
O107      Cd1298   2.481       .  S
C108        O116   1.269       .  A
C108        C950   1.476       .  S
C109        O114   1.270       .  A
C109        O112   1.264       .  A
C109        C960   1.475       .  S
Cd110       O116   2.416       .  S
Cd110       O115   2.431       .  S
Cd110       O111   2.472       .  S
Cd110       O114   2.491       .  S
Cd110       O112   2.433       .  S
Cd110      O1295   2.481   1_554  S
Cd110      O1305   2.439   1_554  S
C113        O117   1.264       .  A
C113        C970   1.477       .  S
O117      Cd1298   2.439       .  S
O118        C121   1.270       .  A
O118       Cd123   2.480       .  S
C119        O128   1.267       .  A
C119        O124   1.270       .  A
C119        C920   1.477       .  S
O120        C126   1.271       .  A
O120      Cd1311   2.526   1_554  S
C121        O129   1.265       .  A
C121        C983   1.477       .  S
C122        O127   1.271       .  A
C122        O125   1.264       .  A
C122        C940   1.476       .  S
Cd123       O129   2.427       .  S
Cd123       O128   2.414       .  S
Cd123       O124   2.480       .  S
Cd123       O127   2.501       .  S
Cd123       O125   2.426       .  S
Cd123      O1308   2.526       .  S
Cd123      O1318   2.417       .  S
C126        O130   1.264       .  A
C126        C930   1.484       .  S
O130      Cd1311   2.417   1_554  S
O131        C134   1.270       .  A
O131       Cd136   2.511       .  S
C132        O141   1.265       .  A
C132        O137   1.270       .  A
C132        C943   1.481       .  S
O133        C139   1.273       .  A
O133       Cd136   2.491       .  S
C134        O142   1.265       .  A
C134        C933   1.474       .  S
C135        O140   1.272       .  A
C135        O138   1.265       .  A
C135        C900   1.484       .  S
Cd136       O143   2.436       .  S
Cd136       O142   2.425       .  S
Cd136       O141   2.448       .  S
Cd136       O137   2.477       .  S
Cd136       O140   2.524       .  S
Cd136       O138   2.407       .  S
C139        O143   1.265       .  A
C139        C910   1.484       .  S
O144        C147   1.270       .  A
O144       Cd149   2.486       .  S
C145        O154   1.266       .  A
C145        O150   1.269       .  A
C145        C963   1.477       .  S
O146        C152   1.272       .  A
O146       Cd149   2.483       .  S
C147        O155   1.265       .  A
C147        C973   1.475       .  S
C148        O153   1.271       .  A
C148        O151   1.263       .  A
C148        C913   1.483       .  S
Cd149       O156   2.406       .  S
Cd149       O155   2.436       .  S
Cd149       O154   2.450       .  S
Cd149       O150   2.472       .  S
Cd149       O153   2.505       .  S
Cd149       O151   2.430       .  S
C152        O156   1.267       .  A
C152        C890   1.478       .  S
O157        C160   1.271       .  A
O157       Cd162   2.488       .  S
C158        O167   1.265       .  A
C158        O163   1.270       .  A
C158        C860   1.476       .  S
O159        C165   1.271       .  A
O159       Cd162   2.499       .  S
C160        O168   1.265       .  A
C160        C870   1.473       .  S
C161        O166   1.272       .  A
C161        O164   1.268       .  A
C161       C1093   1.479       .  S
Cd162       O169   2.424       .  S
Cd162       O168   2.415       .  S
Cd162       O167   2.441       .  S
Cd162       O163   2.467       .  S
Cd162       O166   2.473       .  S
Cd162       O164   2.414       .  S
C165        O169   1.263       .  A
C165        C880   1.481       .  S
O170        C173   1.270       .  A
O170       Cd175   2.477       .  S
C171        O180   1.265       .  A
C171        O176   1.270       .  A
C171        C850   1.470       .  S
O172        C178   1.272       .  A
O172       Cd175   2.476       .  S
C173        O181   1.264       .  A
C173        C843   1.471       .  S
C174        O179   1.271       .  A
C174        O177   1.263       .  A
C174        C883   1.482       .  S
Cd175       O182   2.411       .  S
Cd175       O181   2.411       .  S
Cd175       O180   2.423       .  S
Cd175       O176   2.459       .  S
Cd175       O179   2.493       .  S
Cd175       O177   2.442       .  S
C178        O182   1.267       .  A
C178        C830   1.479       .  S
O183        C186   1.270       .  A
O183       Cd188   2.495       .  S
C184        O193   1.265       .  A
C184        O189   1.269       .  A
C184        C873   1.473       .  S
O185        C191   1.272       .  A
O185       Cd188   2.480       .  S
C186        O194   1.264       .  A
C186       C2051   1.475       .  S
C187        O192   1.270       .  A
C187        O190   1.263       .  A
C187        C820   1.480       .  S
Cd188       O195   2.399       .  S
Cd188       O194   2.420       .  S
Cd188       O193   2.434       .  S
Cd188       O189   2.460       .  S
Cd188       O192   2.488       .  S
Cd188       O190   2.438       .  S
C191        O195   1.267       .  A
C191        C923   1.477       .  S
O196        C199   1.271       .  A
O196       Cd201   2.479       .  S
C197        O206   1.265       .  A
C197        O202   1.270       .  A
C197        C840   1.471       .  S
O198        C204   1.272       .  A
O198       Cd201   2.492       .  S
C199        O207   1.266       .  A
C199        C853   1.472       .  S
C200        O205   1.273       .  A
C200        O203   1.268       .  A
C200        C810   1.479       .  S
Cd201       O208   2.419       .  S
Cd201       O207   2.413       .  S
Cd201       O206   2.415       .  S
Cd201       O202   2.463       .  S
Cd201       O205   2.473       .  S
Cd201       O203   2.417       .  S
C204        O208   1.263       .  A
C204        C823   1.480       .  S
O209        C212   1.271       .  A
O209       Cd214   2.485       .  S
C210        O219   1.265       .  A
C210        O215   1.270       .  A
C210        C780   1.477       .  S
O211        C217   1.271       .  A
O211       Cd214   2.491       .  S
C212        O220   1.266       .  A
C212        C790   1.476       .  S
C213        O218   1.273       .  A
C213        O216   1.268       .  A
C213        C770   1.479       .  S
Cd214       O221   2.424       .  S
Cd214       O220   2.425       .  S
Cd214       O219   2.439       .  S
Cd214       O215   2.469       .  S
Cd214       O218   2.478       .  S
Cd214       O216   2.405       .  S
C217        O221   1.263       .  A
C217        C800   1.480       .  S
O222        C225   1.270       .  A
O222       Cd227   2.484       .  S
C223        O232   1.264       .  A
C223        O228   1.270       .  A
C223        C750   1.477       .  S
O224        C230   1.270       .  A
O224       Cd227   2.499       .  S
C225        O233   1.264       .  A
C225        C760   1.477       .  S
C226        O231   1.271       .  A
C226        O229   1.268       .  A
C226        C893   1.480       .  S
Cd227       O234   2.428       .  S
Cd227       O233   2.441       .  S
Cd227       O232   2.433       .  S
Cd227       O228   2.500       .  S
Cd227       O231   2.485       .  S
Cd227       O229   2.412       .  S
C230        O234   1.263       .  A
C230        C803   1.480       .  S
O235        C238   1.270       .  A
O235       Cd240   2.473       .  S
C236        O245   1.263       .  A
C236        O241   1.269       .  A
C236        C740   1.479       .  S
O237        C243   1.270       .  A
O237       Cd240   2.501       .  S
C238        O246   1.268       .  A
C238        C833   1.479       .  S
C239        O244   1.268       .  A
C239        O242   1.265       .  A
C239        C793   1.478       .  S
Cd240       O247   2.429       .  S
Cd240       O246   2.429       .  S
Cd240       O245   2.420       .  S
Cd240       O241   2.505       .  S
Cd240       O244   2.477       .  S
Cd240       O242   2.456       .  S
C243        O247   1.264       .  A
C243        C783   1.476       .  S
O248        C251   1.271       .  A
O248       Cd253   2.483       .  S
C249        O258   1.263       .  A
C249        O254   1.269       .  A
C249        C743   1.478       .  S
O250        C256   1.270       .  A
O250       Cd253   2.480       .  S
C251        O259   1.268       .  A
C251       C1003   1.480       .  S
C252        O255   1.264       .  A
C252       O1445   1.271       .  A
C252        C763   1.474       .  S
Cd253       O260   2.446       .  S
Cd253       O259   2.421       .  S
Cd253       O258   2.447       .  S
Cd253       O254   2.472       .  S
Cd253       O257   2.496       .  S
Cd253      O1443   2.409       .  S
O255      Cd1441   2.409       .  S
C256        O260   1.264       .  A
C256        C753   1.478       .  S
O257       C1440   1.271       .  A
O261        C264   1.271       .  A
O261       Cd266   2.510       .  S
C262        O271   1.265       .  A
C262        O267   1.271       .  A
C262        C720   1.478       .  S
O263        C269   1.271       .  A
O263       Cd266   2.492       .  S
C264        O272   1.264       .  A
C264        C710   1.480       .  S
C265        O270   1.270       .  A
C265        O268   1.264       .  A
C265        C730   1.482       .  S
Cd266       O273   2.414       .  S
Cd266       O272   2.411       .  S
Cd266       O271   2.426       .  S
Cd266       O267   2.515       .  S
Cd266       O270   2.494       .  S
Cd266       O268   2.442       .  S
C269        O273   1.267       .  A
C269        C773   1.480       .  S
O274        C277   1.270       .  A
O274       Cd279   2.465       .  S
C275        O284   1.265       .  A
C275        O280   1.271       .  A
C275       C1878   1.475       .  S
O276        C282   1.272       .  A
O276       Cd279   2.497       .  S
C277        O285   1.266       .  A
C277        C700   1.477       .  S
C278        O283   1.272       .  A
C278        O281   1.267       .  A
C278       C1153   1.480       .  S
Cd279       O286   2.434       .  S
Cd279       O285   2.443       .  S
Cd279       O284   2.420       .  S
Cd279       O280   2.492       .  S
Cd279       O283   2.490       .  S
Cd279       O281   2.408       .  S
C282        O286   1.264       .  A
C282        C733   1.482       .  S
O287        C290   1.270       .  A
O287       Cd292   2.468       .  S
C288        O297   1.263       .  A
C288        O293   1.268       .  A
C288        C680   1.478       .  S
O289        C295   1.268       .  A
O289       Cd292   2.489       .  S
C290        O298   1.268       .  A
C290       C1053   1.478       .  S
C291        O296   1.269       .  A
C291        O294   1.264       .  A
C291        C703   1.476       .  S
Cd292       O299   2.451       .  S
Cd292       O298   2.427       .  S
Cd292       O297   2.437       .  S
Cd292       O293   2.487       .  S
Cd292       O296   2.495       .  S
Cd292       O294   2.433       .  S
C295        O299   1.264       .  A
C295        C693   1.478       .  S
O300        C303   1.270       .  A
O300       Cd305   2.488       .  S
C301        O310   1.266       .  A
C301        O306   1.271       .  A
C301        C683   1.477       .  S
O302        C308   1.268       .  A
O302       Cd305   2.503       .  S
C303        O311   1.264       .  A
C303        C670   1.475       .  S
C304        O309   1.269       .  A
C304        O307   1.263       .  A
C304        C723   1.481       .  S
Cd305       O312   2.426       .  S
Cd305       O311   2.404       .  S
Cd305       O310   2.433       .  S
Cd305       O306   2.472       .  S
Cd305       O309   2.477       .  S
Cd305       O307   2.460       .  S
C308        O312   1.263       .  A
C308        C713   1.473       .  S
O313        C316   1.273       .  A
O313       Cd318   2.501       .  S
C314       O1511   1.265       .  A
C314       O1507   1.272       .  A
C314        C650   1.477       .  S
O315        C321   1.271       .  A
O315       Cd318   2.485       .  S
C316        O324   1.264       .  A
C316        C643   1.475       .  S
C317        O322   1.271       .  A
C317        O320   1.265       .  A
C317        C660   1.479       .  S
Cd318       O325   2.412       .  S
Cd318       O324   2.386       .  S
Cd318       O323   2.414       .  S
Cd318       O319   2.502       .  S
Cd318       O322   2.477       .  S
Cd318       O320   2.430       .  S
O319       C1502   1.272   1_554  A
C321        O325   1.267       .  A
C321       C1123   1.480       .  S
O323       C1502   1.265   1_554  A
O326        C329   1.270       .  A
O326       Cd331   2.474       .  S
C327        O336   1.265       .  A
C327        O332   1.269       .  A
C327        C620   1.474       .  S
O328        C334   1.270       .  A
O328       Cd331   2.485       .  S
C329        O337   1.265       .  A
C329        C630   1.477       .  S
C330        O335   1.271       .  A
C330        O333   1.267       .  A
C330        C610   1.480       .  S
Cd331       O338   2.431       .  S
Cd331       O337   2.434       .  S
Cd331       O336   2.430       .  S
Cd331       O332   2.492       .  S
Cd331       O335   2.489       .  S
Cd331       O333   2.410       .  S
C334        O338   1.263       .  A
C334        C663   1.478       .  S
O339        C342   1.269       .  A
O339       Cd344   2.497       .  S
C340        O349   1.269       .  A
C340        O345   1.270       .  A
C340        C813   1.479       .  S
O341        C347   1.270       .  A
O341       Cd344   2.498       .  S
C342        O350   1.263       .  A
C342        C600   1.481       .  S
C343        O348   1.269       .  A
C343        O346   1.265       .  A
C343        C623   1.477       .  S
Cd344       O351   2.411       .  S
Cd344       O350   2.440       .  S
Cd344       O349   2.441       .  S
Cd344       O345   2.457       .  S
Cd344       O348   2.480       .  S
Cd344       O346   2.447       .  S
C347        O351   1.263       .  A
C347        C633   1.472       .  S
O352        C355   1.270       .  A
O352       Cd357   2.493       .  S
C353        O362   1.265       .  A
C353        O358   1.271       .  A
C353        C603   1.480       .  S
O354        C360   1.268       .  A
O354       Cd357   2.499       .  S
C355        O363   1.265       .  A
C355       C1023   1.478       .  S
C356        O361   1.268       .  A
C356        O359   1.264       .  A
C356        C653   1.478       .  S
Cd357       O364   2.412       .  S
Cd357       O363   2.413       .  S
Cd357       O362   2.432       .  S
Cd357       O358   2.479       .  S
Cd357       O361   2.473       .  S
Cd357       O359   2.450       .  S
C360        O364   1.263       .  A
C360        C640   1.470       .  S
O365        C368   1.270       .  A
O365       Cd370   2.474       .  S
C366        O375   1.265       .  A
C366        O371   1.271       .  A
C366        C570   1.475       .  S
O367        C373   1.271       .  A
O367       Cd370   2.507       .  S
C368        O376   1.265       .  A
C368        C580   1.477       .  S
C369        O374   1.272       .  A
C369        O372   1.267       .  A
C369       C1103   1.479       .  S
Cd370       O377   2.427       .  S
Cd370       O376   2.441       .  S
Cd370       O375   2.419       .  S
Cd370       O371   2.491       .  S
Cd370       O374   2.482       .  S
Cd370       O372   2.411       .  S
C373        O377   1.263       .  A
C373        C590   1.482       .  S
O378        C381   1.270       .  A
O378       Cd383   2.477       .  S
C379        O388   1.265       .  A
C379        O384   1.269       .  A
C379        C550   1.477       .  S
O380        C386   1.271       .  A
O380       Cd383   2.506       .  S
C381        O389   1.266       .  A
C381        C560   1.472       .  S
C382        O387   1.273       .  A
C382        O385   1.267       .  A
C382        C540   1.482   1_655  S
Cd383       O390   2.436       .  S
Cd383       O389   2.423       .  S
Cd383       O388   2.437       .  S
Cd383       O384   2.475       .  S
Cd383       O387   2.492       .  S
Cd383       O385   2.419       .  S
C386        O390   1.263       .  A
C386        C593   1.483       .  S
O391       C1582   1.271       .  A
O391       Cd396   2.488       .  S
C392        O401   1.266       .  A
C392        O397   1.270       .  A
C392        C573   1.477       .  S
O393        C399   1.272       .  A
O393       Cd396   2.489       .  S
C394       O1579   1.271       .  A
C394       O1590   1.265       .  A
C394        C583   1.473       .  S
C395        O400   1.272       .  A
C395        O398   1.267       .  A
C395        C953   1.477       .  S
Cd396       O403   2.420       .  S
Cd396       O402   2.415       .  S
Cd396       O401   2.452       .  S
Cd396       O397   2.460       .  S
Cd396       O400   2.477       .  S
Cd396       O398   2.403       .  S
C399        O403   1.263       .  A
C399        C530   1.479       .  S
O402       C1582   1.265       .  A
O404        C407   1.270       .  A
O404       Cd409   2.475       .  S
C405        O414   1.265       .  A
C405        O410   1.270       .  A
C405        C553   1.478       .  S
O406        C412   1.270       .  A
O406       Cd409   2.486       .  S
C407        O415   1.265       .  A
C407        C563   1.473       .  S
C408        O413   1.272       .  A
C408        O411   1.267       .  A
C408        C673   1.475       .  S
Cd409       O416   2.431       .  S
Cd409       O415   2.428       .  S
Cd409       O414   2.433       .  S
Cd409       O410   2.488       .  S
Cd409       O413   2.474       .  S
Cd409       O411   2.400       .  S
C412        O416   1.263       .  A
C412        C533   1.479       .  S
O417        C420   1.270       .  A
O417       Cd422   2.480       .  S
C418        O427   1.265       .  A
C418        O423   1.270       .  A
C418        C510   1.474       .  S
O419        C425   1.272       .  A
O419       Cd422   2.503       .  S
C420        O428   1.265       .  A
C420        C503   1.475       .  S
C421        O426   1.270       .  A
C421        O424   1.264       .  A
C421        C520   1.483       .  S
Cd422       O429   2.418       .  S
Cd422       O428   2.423       .  S
Cd422       O427   2.409       .  S
Cd422       O423   2.490       .  S
Cd422       O426   2.488       .  S
Cd422       O424   2.455       .  S
C425        O429   1.267       .  A
C425        C903   1.484       .  S
O430        C433   1.270       .  A
O430       Cd435   2.486       .  S
C431        O440   1.265       .  A
C431        O436   1.270       .  A
C431        C480   1.480       .  S
O432        C438   1.271       .  A
O432       Cd435   2.508       .  S
C433        O441   1.265       .  A
C433        C490   1.479       .  S
C434        O439   1.272       .  A
C434        O437   1.267       .  A
C434        C613   1.482       .  S
Cd435       O442   2.428       .  S
Cd435       O441   2.447       .  S
Cd435       O440   2.438       .  S
Cd435       O436   2.499       .  S
Cd435       O439   2.507       .  S
Cd435       O437   2.400       .  S
C438        O442   1.263       .  A
C438        C523   1.483       .  S
O443        C446   1.270       .  A
O443       Cd448   2.461       .  S
C444        O453   1.263       .  A
C444        O449   1.268       .  A
C444        C470   1.478       .  S
O445        C451   1.270       .  A
O445       Cd448   2.497       .  S
C446        O454   1.269       .  A
C446        C993   1.477       .  S
C447        O452   1.268       .  A
C447        O450   1.263       .  A
C447        C513   1.475       .  S
Cd448       O455   2.416       .  S
Cd448       O454   2.420       .  S
Cd448       O453   2.440       .  S
Cd448       O449   2.480       .  S
Cd448       O452   2.467       .  S
Cd448       O450   2.453       .  S
C451        O455   1.263       .  A
C451       C1688   1.471       .  S
O456        C459   1.271       .  A
O456       Cd461   2.479       .  S
C457        O466   1.263       .  A
C457        O462   1.268       .  A
C457        C473   1.481       .  S
O458        C464   1.268       .  A
O458       Cd461   2.488       .  S
C459        O467   1.268       .  A
C459        C543   1.482       .  S
C460        O465   1.270       .  A
C460        O463   1.264       .  A
C460        C493   1.478       .  S
Cd461       O468   2.463       .  S
Cd461       O467   2.429       .  S
Cd461       O466   2.446       .  S
Cd461       O462   2.497       .  S
Cd461       O465   2.496       .  S
Cd461       O463   2.437       .  S
C464        O468   1.264       .  A
C464        C483   1.481       .  S
C469        C470   1.407       .  A
C469        C474   1.399       .  A
C469        H475   1.083       .  S
C470        C471   1.403       .  A
C471        C472   1.398       .  A
C471        H476   1.083       .  S
C472        C473   1.407       .  A
C472        H477   1.083       .  S
C473        C474   1.403       .  A
C474        H478   1.083       .  S
C479        C480   1.405       .  A
C479       C1672   1.398   1_554  A
C479        H485   1.083       .  S
C480        C481   1.404       .  A
C481        C482   1.402       .  A
C481        H486   1.083       .  S
C482       C1671   1.408   1_554  A
C482        H487   1.083       .  S
C483        C484   1.404       .  A
C483       C1670   1.408       .  A
C484       C1667   1.398       .  A
C484        H488   1.083       .  S
C489        C490   1.407       .  A
C489        C494   1.400       .  A
C489        H495   1.083       .  S
C490        C491   1.403       .  A
C491        C492   1.399       .  A
C491        H496   1.083       .  S
C492        C493   1.407       .  A
C492        H497   1.083       .  S
C493        C494   1.403       .  A
C494        H498   1.083       .  S
C499        C500   1.401       .  A
C499        C504   1.399       .  A
C499        H505   1.083       .  S
C500       C1639   1.471   1_554  S
C500        C501   1.405       .  A
C501        C502   1.397       .  A
C501        H506   1.083       .  S
C502        C503   1.402       .  A
C502        H507   1.083       .  S
C503        C504   1.407       .  A
C504        H508   1.083       .  S
C509        C510   1.404       .  A
C509        C514   1.401       .  A
C509        H515   1.083       .  S
C510        C511   1.404       .  A
C511        C512   1.394       .  A
C511        H516   1.083       .  S
C512        C513   1.402       .  A
C512        H517   1.083       .  S
C513        C514   1.407       .  A
C514        H518   1.083       .  S
C519        C520   1.409       .  A
C519        C524   1.402       .  A
C519        H525   1.083       .  S
C520        C521   1.403       .  A
C521        C522   1.398       .  A
C521        H526   1.083       .  S
C522        C523   1.408       .  A
C522        H527   1.083       .  S
C523        C524   1.404       .  A
C524        H528   1.083       .  S
C529        C530   1.402       .  A
C529        C534   1.399       .  A
C529        H535   1.083       .  S
C530        C531   1.408       .  A
C531        C532   1.398       .  A
C531        H536   1.083       .  S
C532        C533   1.402       .  A
C532        H537   1.083       .  S
C533        C534   1.408       .  A
C534        H538   1.083       .  S
C539        C540   1.405       .  A
C539        C544   1.395       .  A
C539        H545   1.083       .  S
C540        C541   1.406       .  A
C541        C542   1.404       .  A
C541        H546   1.082       .  S
C542        C543   1.407       .  A
C542        H547   1.083       .  S
C543        C544   1.404       .  A
C544        H548   1.083       .  S
C549        C550   1.403       .  A
C549        C554   1.398       .  A
C549        H555   1.083       .  S
C550        C551   1.406       .  A
C551        C552   1.400       .  A
C551        H556   1.083       .  S
C552        C553   1.403       .  A
C552        H557   1.083       .  S
C553        C554   1.406       .  A
C554        H558   1.083       .  S
C559        C560   1.402       .  A
C559        C564   1.399       .  A
C559        H565   1.083       .  S
C560        C561   1.405       .  A
C561       C1750   1.396       .  A
C561        H566   1.083       .  S
C562        C563   1.402   1_556  A
C562       C1749   1.396       .  A
C562        H567   1.083   1_556  S
C563       C1752   1.407   1_554  A
C564       C1751   1.407       .  A
C564       H1756   1.083       .  S
H568       C1752   1.083       .  S
C569        C570   1.404       .  A
C569        C574   1.402       .  A
C569        H575   1.083       .  S
C570        C571   1.404       .  A
C571        C572   1.395       .  A
C571        H576   1.083       .  S
C572        C573   1.402       .  A
C572        H577   1.083       .  S
C573        C574   1.408       .  A
C574        H578   1.083       .  S
C579        C580   1.408       .  A
C579        C584   1.400       .  A
C579        H585   1.083       .  S
C580        C581   1.403       .  A
C581        C582   1.396       .  A
C581        H586   1.083       .  S
C582        C583   1.405       .  A
C582        H587   1.083       .  S
C583        C584   1.402       .  A
C584        H588   1.083       .  S
C589        C590   1.409       .  A
C589        C594   1.400       .  A
C589        H595   1.083       .  S
C590        C591   1.402       .  A
C591        C592   1.400       .  A
C591        H596   1.083       .  S
C592        C593   1.409       .  A
C592        H597   1.083       .  S
C593        C594   1.403       .  A
C594        H598   1.083       .  S
C599        C600   1.407       .  A
C599        C604   1.398       .  A
C599        H605   1.083       .  S
C600        C601   1.403       .  A
C601        C602   1.400       .  A
C601        H606   1.083       .  S
C602        C603   1.408       .  A
C602        H607   1.083       .  S
C603        C604   1.402       .  A
C604        H608   1.083       .  S
C609        C610   1.408       .  A
C609        C614   1.407       .  A
C609        H615   1.083       .  S
C610        C611   1.403       .  A
C611        C612   1.391       .  A
C611        H616   1.083       .  S
C612        C613   1.404       .  A
C612        H617   1.083       .  S
C613        C614   1.407       .  A
C614        H618   1.083       .  S
C619        C620   1.404       .  A
C619        C624   1.397       .  A
C619        H625   1.083       .  S
C620        C621   1.402       .  A
C621        C622   1.401       .  A
C621        H626   1.083       .  S
C622        C623   1.407       .  A
C622        H627   1.083       .  S
C623        C624   1.403       .  A
C624        H628   1.083       .  S
C629        C634   1.397       .  A
C629       C1818   1.403       .  A
C629       H1823   1.083       .  S
C630       C1817   1.403   1_554  A
C630       C1819   1.407   1_554  A
C631        C632   1.400       .  A
C631       C1818   1.407       .  A
C631       H1824   1.083       .  S
C632        C633   1.401       .  A
C632        H637   1.083       .  S
C633        C634   1.405       .  A
C634        H638   1.083       .  S
H635       C1817   1.083   1_554  S
H636       C1819   1.083       .  S
C639        C640   1.400       .  A
C639        C644   1.390       .  A
C639        H645   1.084       .  S
C640        C641   1.406       .  A
C641        C642   1.405       .  A
C641        H646   1.083       .  S
C642        C643   1.405       .  A
C642        H647   1.083       .  S
C643        C644   1.405       .  A
C644        H648   1.083       .  S
C649        C650   1.405       .  A
C649        C654   1.396       .  A
C649        H655   1.083       .  S
C650        C651   1.403       .  A
C651        C652   1.402       .  A
C651        H656   1.083       .  S
C652        C653   1.408       .  A
C652        H657   1.083       .  S
C653        C654   1.403       .  A
C654        H658   1.083       .  S
C659        C660   1.407       .  A
C659        C664   1.398       .  A
C659        H665   1.083       .  S
C660        C661   1.403       .  A
C661        C662   1.398       .  A
C661        H666   1.083       .  S
C662        C663   1.407       .  A
C662        H667   1.083       .  S
C663        C664   1.403       .  A
C664        H668   1.083       .  S
C669        C670   1.404   1_545  A
C669        C674   1.391       .  A
C669        H675   1.083   1_545  S
C670        C671   1.405   1_565  A
C671        C672   1.402       .  A
C671        H676   1.083   1_545  S
C672        C673   1.406       .  A
C672        H677   1.082       .  S
C673        C674   1.403       .  A
C674        H678   1.084       .  S
C679        C680   1.407       .  A
C679        C684   1.397       .  A
C679        H685   1.083       .  S
C680        C681   1.403       .  A
C681        C682   1.399       .  A
C681        H686   1.083       .  S
C682        C683   1.407       .  A
C682        H687   1.083       .  S
C683        C684   1.402       .  A
C684        H688   1.083       .  S
C689        C690   1.405       .  A
C689        C694   1.398       .  A
C689        H695   1.083       .  S
C690       C1463   1.475   1_554  S
C690        C691   1.402       .  A
C691        C692   1.401       .  A
C691        H696   1.083       .  S
C692        C693   1.407       .  A
C692        H697   1.083       .  S
C693        C694   1.403       .  A
C694        H698   1.083       .  S
C699        C700   1.403       .  A
C699        C704   1.397       .  A
C699        H705   1.083       .  S
C700        C701   1.407       .  A
C701        C702   1.401       .  A
C701        H706   1.083       .  S
C702        C703   1.403       .  A
C702        H707   1.083       .  S
C703        C704   1.405       .  A
C704        H708   1.083       .  S
C709        C714   1.405       .  A
C709       C1898   1.406   1_554  A
C709       H1903   1.083   1_554  S
C710        C711   1.406       .  A
C710       C1897   1.406       .  A
C711       C1900   1.393       .  A
C711        H716   1.083       .  S
C712        C713   1.400       .  A
C712       C1899   1.393       .  A
C712        H717   1.084       .  S
C713        C714   1.406       .  A
C714        H718   1.083       .  S
H715       C1897   1.083       .  S
C719        C720   1.404       .  A
C719        C724   1.396       .  A
C719        H725   1.083       .  S
C720        C721   1.404       .  A
C721        C722   1.404       .  A
C721        H726   1.083       .  S
C722        C723   1.410       .  A
C722        H727   1.083       .  S
C723        C724   1.403       .  A
C724        H728   1.083       .  S
C729        C730   1.404       .  A
C729        C734   1.400       .  A
C729        H735   1.083       .  S
C730        C731   1.408       .  A
C731        C732   1.400       .  A
C731        H736   1.083       .  S
C732        C733   1.403       .  A
C732        H737   1.083       .  S
C733        C734   1.408       .  A
C734        H738   1.083       .  S
C739        C740   1.406       .  A
C739        C744   1.395       .  A
C739        H745   1.083       .  S
C740        C741   1.404       .  A
C741        C742   1.401       .  A
C741        H746   1.083       .  S
C742        C743   1.409       .  A
C742        H747   1.083       .  S
C743        C744   1.401       .  A
C744        H748   1.083       .  S
C749        C750   1.405       .  A
C749        C754   1.398       .  A
C749        H755   1.083       .  S
C750        C751   1.403       .  A
C751        C752   1.401       .  A
C751        H756   1.083       .  S
C752        C753   1.407       .  A
C752        H757   1.083       .  S
C753        C754   1.403       .  A
C754        H758   1.083       .  S
C759        C760   1.402       .  A
C759        C764   1.396       .  A
C759        H765   1.083       .  S
C760        C761   1.407       .  A
C761        C762   1.401       .  A
C761        H766   1.083       .  S
C762        C763   1.403       .  A
C762        H767   1.083       .  S
C763        C764   1.405       .  A
C764        H768   1.083       .  S
C769        C770   1.406       .  A
C769        C774   1.404       .  A
C769        H775   1.083       .  S
C770        C771   1.404       .  A
C771        C772   1.392       .  A
C771        H776   1.083       .  S
C772        C773   1.404       .  A
C772        H777   1.083       .  S
C773        C774   1.407       .  A
C774        H778   1.083       .  S
C779        C780   1.408       .  A
C779        C784   1.401       .  A
C779        H785   1.083       .  S
C780        C781   1.403       .  A
C781        C782   1.397       .  A
C781        H786   1.083       .  S
C782        C783   1.405       .  A
C782        H787   1.083       .  S
C783        C784   1.403       .  A
C784        H788   1.083       .  S
C789        C790   1.403       .  A
C789        C794   1.401       .  A
C789        H795   1.083       .  S
C790        C791   1.406       .  A
C791       C1980   1.397       .  A
C791        H796   1.083       .  S
C792        C793   1.403       .  A
C792       C1979   1.397   1_554  A
C792        H797   1.083       .  S
C793       C1982   1.406   1_554  A
C794       C1981   1.406       .  A
C794        H798   1.083       .  S
C799        C800   1.402       .  A
C799        C804   1.398       .  A
C799        H805   1.083       .  S
C800        C801   1.408       .  A
C801        C802   1.399       .  A
C801        H806   1.083       .  S
C802        C803   1.403       .  A
C802        H807   1.083       .  S
C803        C804   1.408       .  A
C804        H808   1.083       .  S
C809        C810   1.406   1_545  A
C809        C814   1.396       .  A
C809        H815   1.083   1_545  S
C810        C811   1.405   1_565  A
C811        C812   1.401       .  A
C811        H816   1.082   1_545  S
C812        C813   1.406       .  A
C812        H817   1.083       .  S
C813        C814   1.404       .  A
C814        H818   1.083       .  S
C819        C820   1.402       .  A
C819        C824   1.397       .  A
C819        H825   1.083       .  S
C820        C821   1.408       .  A
C821        C822   1.399       .  A
C821        H826   1.083       .  S
C822        C823   1.403       .  A
C822        H827   1.083       .  S
C823        C824   1.408       .  A
C824        H828   1.083       .  S
C829        C830   1.405       .  A
C829        C834   1.394       .  A
C829        H835   1.083       .  S
C830        C831   1.405       .  A
C831        C832   1.402       .  A
C831        H836   1.082       .  S
C832        C833   1.406   1_455  A
C832        H837   1.083       .  S
C833        C834   1.404   1_655  A
C834        H838   1.083       .  S
C839        C840   1.406       .  A
C839       C2032   1.398       .  A
C839        H845   1.083       .  S
C840        C841   1.402       .  A
C841       C2030   1.395       .  A
C841        H846   1.083       .  S
C842        C843   1.405       .  A
C842       C2029   1.395   1_554  A
C842        H847   1.083       .  S
C843        C844   1.402       .  A
C844       C2027   1.398       .  A
C844        H848   1.083       .  S
C849        C850   1.406       .  A
C849        C854   1.399       .  A
C849        H855   1.083       .  S
C850        C851   1.401       .  A
C851        C852   1.394       .  A
C851        H856   1.084       .  S
C852        C853   1.405       .  A
C852        H857   1.083       .  S
C853        C854   1.403       .  A
C854        H858   1.083       .  S
C859        C860   1.402       .  A
C859        C864   1.396       .  A
C859        H865   1.083       .  S
C860        C861   1.407       .  A
C861        C862   1.401       .  A
C861        H866   1.083       .  S
C862        C863   1.403       .  A
C862        H867   1.083       .  S
C863       C1374   1.475   1_554  S
C863        C864   1.405       .  A
C864        H868   1.083       .  S
C869        C870   1.402       .  A
C869        C874   1.400       .  A
C869        H875   1.083       .  S
C870        C871   1.405       .  A
C871        C872   1.395       .  A
C871        H876   1.083       .  S
C872        C873   1.402       .  A
C872        H877   1.083       .  S
C873        C874   1.407       .  A
C874        H878   1.083       .  S
C879        C880   1.408       .  A
C879        C884   1.398       .  A
C879        H885   1.083       .  S
C880        C881   1.403       .  A
C881        C882   1.400       .  A
C881        H886   1.083       .  S
C882        C883   1.409       .  A
C882        H887   1.083       .  S
C883        C884   1.402       .  A
C884        H888   1.083       .  S
C889        C890   1.404       .  A
C889        C894   1.392       .  A
C889        H895   1.083       .  S
C890        C891   1.406       .  A
C891        C892   1.404       .  A
C891        H896   1.083       .  S
C892        C893   1.407       .  A
C892        H897   1.083       .  S
C893        C894   1.404       .  A
C894        H898   1.083       .  S
C899        C900   1.407       .  A
C899        C904   1.408       .  A
C899        H905   1.083       .  S
C900        C901   1.405       .  A
C901        C902   1.392       .  A
C901        H906   1.083       .  S
C902        C903   1.403       .  A
C902        H907   1.083       .  S
C903        C904   1.408       .  A
C904        H908   1.083       .  S
C909        C910   1.409       .  A
C909        C914   1.401       .  A
C909        H915   1.083       .  S
C910        C911   1.402       .  A
C911        C912   1.399       .  A
C911        H916   1.083       .  S
C912        C913   1.408   1_455  A
C912        H917   1.083   1_455  S
C913        C914   1.403   1_655  A
C914        H918   1.083       .  S
C919        C920   1.403       .  A
C919        C924   1.391       .  A
C919        H925   1.083       .  S
C920        C921   1.406       .  A
C921        C922   1.403       .  A
C921        H926   1.083       .  S
C922        C923   1.406       .  A
C922        H927   1.083       .  S
C923        C924   1.404       .  A
C924        H928   1.083       .  S
C929        C930   1.406       .  A
C929        C934   1.393       .  A
C929        H935   1.083       .  S
C930        C931   1.408       .  A
C931        C932   1.409       .  A
C931        H936   1.083       .  S
C932        C933   1.406       .  A
C932        H937   1.083       .  S
C933        C934   1.399       .  A
C934        H938   1.083       .  S
C939        C940   1.405       .  A
C939        C944   1.398       .  A
C939        H945   1.083       .  S
C940        C941   1.402       .  A
C941        C942   1.402       .  A
C941        H946   1.083       .  S
C942        C943   1.408       .  A
C942        H947   1.083       .  S
C943        C944   1.404       .  A
C944        H948   1.083       .  S
C949        C950   1.406       .  A
C949        C954   1.402       .  A
C949        H955   1.083       .  S
C950        C951   1.403       .  A
C951        C952   1.392       .  A
C951        H956   1.083       .  S
C952        C953   1.404       .  A
C952        H957   1.083       .  S
C953        C954   1.405       .  A
C954        H958   1.082       .  S
C959        C960   1.403       .  A
C959        C964   1.400       .  A
C959        H965   1.083       .  S
C960        C961   1.405       .  A
C961        C962   1.398       .  A
C961        H966   1.083       .  S
C962        C963   1.403       .  A
C962        H967   1.083       .  S
C963        C964   1.406       .  A
C964        H968   1.083       .  S
C969        C970   1.407       .  A
C969        C974   1.399       .  A
C969        H975   1.083       .  S
C970        C971   1.404       .  A
C971        C972   1.399       .  A
C971        H976   1.083       .  S
C972        C973   1.405       .  A
C972        H977   1.083       .  S
C973        C974   1.402       .  A
C974        H978   1.083       .  S
C979        C980   1.407   1_556  A
C979       C2172   1.398   1_655  A
C979        H985   1.083   1_556  S
C980        C981   1.402   1_654  A
C981       C2170   1.396       .  A
C981        H986   1.083       .  S
C982        C983   1.406       .  A
C982       C2169   1.396       .  A
C982        H987   1.083       .  S
C983        C984   1.403       .  A
C984       C2167   1.398   1_455  A
C984        H988   1.083       .  S
C989        C990   1.404       .  A
C989        C994   1.393       .  A
C989        H995   1.083       .  S
C990        C991   1.406       .  A
C991        C992   1.402       .  A
C991        H996   1.082       .  S
C992        C993   1.406       .  A
C992        H997   1.083       .  S
C993        C994   1.403       .  A
C994        H998   1.083       .  S
C999       C1000   1.404       .  A
C999       C1004   1.392       .  A
C999       H2193   1.083       .  S
C1000      C1001   1.405       .  A
C1001      C1002   1.404       .  A
C1001      H1006   1.083       .  S
C1002      C1003   1.407       .  A
C1002      H1007   1.083       .  S
C1003      C1004   1.403       .  A
C1004      H1008   1.083       .  S
H1005      C2187   1.083       .  S
C1009      C1010   1.408       .  A
C1009      C1014   1.398       .  A
C1009      H1015   1.083       .  S
C1010      C2199   1.403       .  A
C1011      C1012   1.399       .  A
C1011      C2198   1.403       .  A
C1011      H1016   1.083       .  S
C1012      C1013   1.408       .  A
C1012      H1017   1.083       .  S
C1013      C2202   1.402       .  A
C1014      C2201   1.402       .  A
C1014      H1018   1.083       .  S
C1019      C1020   1.407       .  A
C1019      C1024   1.405       .  A
C1019      H1025   1.082       .  S
C1020      C1021   1.404       .  A
C1021      C1022   1.390       .  A
C1021      H1026   1.083       .  S
C1022      C1023   1.403       .  A
C1022      H1027   1.083       .  S
C1023      C1024   1.407       .  A
C1024      H1028   1.083       .  S
C1029      C1030   1.406       .  A
C1029      C1034   1.405       .  A
C1029      H1035   1.083       .  S
C1030      C1031   1.406       .  A
C1031      C1032   1.392       .  A
C1031      H1036   1.083       .  S
C1032      C1033   1.398       .  A
C1032      H1037   1.084       .  S
C1033      C1034   1.405       .  A
C1034      H1038   1.083       .  S
C1039      C1040   1.408       .  A
C1039      C1044   1.401       .  A
C1039      H1045   1.083       .  S
C1040      C1041   1.402       .  A
C1041      C1042   1.395       .  A
C1041      H1046   1.083       .  S
C1042      C1043   1.405       .  A
C1042      H1047   1.083       .  S
C1043      C1044   1.403       .  A
C1044      H1048   1.083       .  S
C1049      C1050   1.405       .  A
C1049      C1054   1.402       .  A
C1049      H1055   1.082       .  S
C1050      C1051   1.405       .  A
C1051      C1052   1.394       .  A
C1051      H1056   1.083       .  S
C1052      C1053   1.404       .  A
C1052      H1057   1.083       .  S
C1053      C1054   1.406       .  A
C1054      H1058   1.083       .  S
C1059      C1060   1.408       .  A
C1059      C1064   1.400       .  A
C1059      H1065   1.083       .  S
C1060      C1061   1.403       .  A
C1061      C1062   1.396       .  A
C1061      H1066   1.083       .  S
C1062      C1063   1.404       .  A
C1062      H1067   1.083       .  S
C1063      C1064   1.402       .  A
C1064      H1068   1.083       .  S
C1069      C1070   1.405       .  A
C1069      C1074   1.395       .  A
C1069      H1075   1.083       .  S
C1070      C1071   1.402       .  A
C1071      C1072   1.400       .  A
C1071      H1076   1.083       .  S
C1072      C1073   1.407       .  A
C1072      H1077   1.083       .  S
C1073      C1074   1.402       .  A
C1074      H1078   1.083       .  S
C1079      C1080   1.409       .  A
C1079      C1084   1.400       .  A
C1079      H1085   1.083       .  S
C1080      C1081   1.402       .  A
C1081      C1082   1.399       .  A
C1081      H1086   1.083       .  S
C1082      C1083   1.408       .  A
C1082      H1087   1.083       .  S
C1083      C1084   1.403       .  A
C1084      H1088   1.083       .  S
C1089      C1090   1.404       .  A
C1089      C1094   1.395       .  A
C1089      H1095   1.083       .  S
C1090      C1091   1.406       .  A
C1091      C1092   1.402       .  A
C1091      H1096   1.083       .  S
C1092      C1093   1.405       .  A
C1092      H1097   1.082       .  S
C1093      C1094   1.405       .  A
C1094      H1098   1.083       .  S
C1099      C1100   1.403       .  A
C1099      C1104   1.392       .  A
C1099      H1105   1.083       .  S
C1100      C1101   1.406       .  A
C1101      C1102   1.402       .  A
C1101      H1106   1.083       .  S
C1102      C1103   1.406       .  A
C1102      H1107   1.082       .  S
C1103      C1104   1.404       .  A
C1104      H1108   1.083       .  S
C1109      C1110   1.403   1_545  A
C1109      C1114   1.398       .  A
C1109      H1115   1.083       .  S
C1110      C1111   1.407       .  A
C1111      C1112   1.397   1_565  A
C1111      H1116   1.083       .  S
C1112      C1113   1.402       .  A
C1112      H1117   1.083       .  S
C1113      C1114   1.407       .  A
C1114      H1118   1.083       .  S
C1119      C1120   1.404       .  A
C1119      C1124   1.393       .  A
C1119      H1125   1.083       .  S
C1120      C1121   1.406       .  A
C1121      C1122   1.404       .  A
C1121      H2314   1.083       .  S
C1122      C1123   1.407       .  A
C1122      H1127   1.083       .  S
C1123      C1124   1.404       .  A
C1124      H1128   1.083       .  S
H1126      C2309   1.083       .  S
C1129      C1130   1.402       .  A
C1129      C1134   1.399       .  A
C1129      H1135   1.083       .  S
C1130      C1131   1.406       .  A
C1131      C1132   1.398       .  A
C1131      H1136   1.083       .  S
C1132      C1133   1.403       .  A
C1132      H1137   1.083       .  S
C1133      C1134   1.406       .  A
C1134      H1138   1.083       .  S
C1139      C1140   1.407       .  A
C1139      C1144   1.399       .  A
C1139      H1145   1.083       .  S
C1140      C1141   1.403       .  A
C1141      C1142   1.397       .  A
C1141      H1146   1.083       .  S
C1142      C1143   1.404       .  A
C1142      H1147   1.083       .  S
C1143      C1144   1.402       .  A
C1144      H1148   1.083       .  S
C1149      C1150   1.404       .  A
C1149      C1154   1.392       .  A
C1149      H1155   1.083       .  S
C1150      C1151   1.407       .  A
C1151      C1152   1.405       .  A
C1151      H1156   1.083       .  S
C1152      C1153   1.406       .  A
C1152      H1157   1.083       .  S
C1153      C1154   1.404       .  A
C1154      H1158   1.083       .  S
C1159      C1160   1.407       .  A
C1159      C1164   1.401       .  A
C1159      H1165   1.083       .  S
C1160      C1161   1.402       .  A
C1161      C1162   1.397       .  A
C1161      H1166   1.083       .  S
C1162      C1163   1.406       .  A
C1162      H1167   1.083       .  S
C1163      C1164   1.403       .  A
C1164      H1168   1.083       .  S
C1169      C1170   1.405       .  A
C1169      C1174   1.398       .  A
C1169      H1175   1.083       .  S
C1170      C1171   1.403       .  A
C1171      C1172   1.401       .  A
C1171      H1176   1.083       .  S
C1172      C1173   1.406       .  A
C1172      H1177   1.083       .  S
C1173      C1174   1.404       .  A
C1174      H1178   1.083       .  S
C1179      C1180   1.403       .  A
C1179      C1184   1.400   1_545  A
C1179      H1185   1.083       .  S
C1180      C2369   1.408       .  A
C1181      C1182   1.399       .  A
C1181      C2368   1.408       .  A
C1181      H1186   1.083       .  S
C1182      C1183   1.402   1_545  A
C1182      H1187   1.083       .  S
C1183      C2372   1.408       .  A
C1184      C2371   1.408   1_554  A
C1184      H1188   1.083   1_554  S
O1189      C1192   1.270       .  A
C1190      O1199   1.265       .  A
C1190      O1195   1.270       .  A
C1190      C2358   1.477       .  S
O1191      C1197   1.271       .  A
O1191     Cd1194   2.493       .  S
C1192      O1200   1.265       .  A
C1192      C2348   1.476       .  S
C1193      O1198   1.272       .  A
C1193      O1196   1.267       .  A
C1193      C2338   1.481       .  S
Cd1194     O1201   2.433       .  S
Cd1194     O1199   2.435       .  S
Cd1194     O1195   2.492       .  S
Cd1194     O1198   2.493       .  S
Cd1194     O1196   2.411       .  S
C1197      O1201   1.263       .  A
C1197      C2371   1.481       .  S
O1202      C1205   1.270       .  A
O1202     Cd1207   2.488       .  S
C1203      O1212   1.265       .  A
C1203      O1208   1.270       .  A
C1203      C2328   1.477       .  S
O1204      C1210   1.271       .  A
O1204     Cd1207   2.497       .  S
C1205      O1213   1.265       .  A
C1205      C2318   1.476       .  S
C1206      O1211   1.272       .  A
C1206      O1209   1.268       .  A
C1206      C2308   1.479       .  S
Cd1207     O1214   2.430       .  S
Cd1207     O1213   2.431       .  S
Cd1207     O1211   2.483       .  S
Cd1207     O1209   2.411       .  S
C1210      O1214   1.263       .  A
C1210      C2368   1.481       .  S
O1215      C1218   1.270       .  A
O1215     Cd1220   2.465       .  S
C1216      O1225   1.262       .  A
C1216      O1221   1.268       .  A
C1216      C2301   1.476       .  S
O1217      C1223   1.268       .  A
O1217     Cd1220   2.491       .  S
C1218      O1226   1.269       .  A
C1218      C2288   1.477       .  S
C1219      O1224   1.268       .  A
C1219      O1222   1.264       .  A
C1219      C2321   1.476       .  S
Cd1220     O1227   2.429       .  S
Cd1220     O1226   2.415       .  S
Cd1220     O1225   2.435       .  S
Cd1220     O1221   2.477       .  S
Cd1220     O1224   2.479       .  S
Cd1220     O1222   2.439       .  S
C1223      O1227   1.263       .  A
C1223      C2331   1.472       .  S
O1228      C1231   1.268       .  A
O1228     Cd1233   2.489       .  S
C1229      O1238   1.269       .  A
C1229      O1234   1.270       .  A
C1229      C2278   1.480       .  S
O1230      C1236   1.269       .  A
O1230     Cd1233   2.505       .  S
C1231      O1239   1.262       .  A
C1231      C2298   1.478       .  S
C1232      O1237   1.269       .  A
C1232      O1235   1.265       .  A
C1232      C2361   1.478       .  S
Cd1233     O1240   2.429       .  S
Cd1233     O1239   2.442       .  S
Cd1233     O1238   2.432       .  S
Cd1233     O1234   2.470       .  S
Cd1233     O1237   2.482       .  S
Cd1233     O1235   2.447       .  S
C1236      O1240   1.262       .  A
C1236      C2351   1.477       .  S
O1241      C1244   1.270       .  A
O1241     Cd1246   2.486       .  S
C1242      O1251   1.266       .  A
C1242      O1247   1.271       .  A
C1242      C2261   1.474       .  S
O1243      C1249   1.272       .  A
O1243     Cd1246   2.498       .  S
C1244      O1252   1.265       .  A
C1244      C2251   1.472       .  S
C1245      O1250   1.272       .  A
C1245      O1248   1.267       .  A
C1245      C2238   1.479       .  S
Cd1246     O1253   2.424       .  S
Cd1246     O1252   2.413       .  S
Cd1246     O1251   2.428       .  S
Cd1246     O1247   2.465       .  S
Cd1246     O1250   2.485       .  S
Cd1246     O1248   2.409       .  S
C1249      O1253   1.264       .  A
C1249      C2271   1.482       .  S
O1254      C1257   1.273       .  A
O1254     Cd1259   2.503       .  S
C1255      O1264   1.264       .  A
C1255      O1260   1.271       .  A
C1255      C2231   1.474       .  S
O1256      C1262   1.272       .  A
O1256     Cd1259   2.490       .  S
C1257      O1265   1.265       .  A
C1257      C2218   1.478       .  S
C1258      O1263   1.273       .  A
C1258      O1261   1.267       .  A
C1258      C2208   1.479       .  S
Cd1259     O1266   2.436       .  S
Cd1259     O1265   2.392       .  S
Cd1259     O1264   2.409       .  S
Cd1259     O1260   2.497       .  S
Cd1259     O1263   2.494       .  S
Cd1259     O1261   2.396       .  S
C1262      O1266   1.265       .  A
C1262      C2268   1.482       .  S
O1267      C1270   1.268       .  A
O1267     Cd1272   2.495       .  S
C1268      O1277   1.265       .  A
C1268      O1273   1.269       .  A
C1268      C2228   1.477       .  S
O1269      C1275   1.272       .  A
O1269     Cd1272   2.479       .  S
C1270      O1278   1.264       .  A
C1270      C2221   1.468       .  S
C1271      O1276   1.271       .  A
C1271      O1274   1.264       .  A
C1271      C2188   1.477       .  S
Cd1272     O1279   2.429       .  S
Cd1272     O1278   2.422       .  S
Cd1272     O1276   2.493       .  S
Cd1272     O1274   2.398       .  S
C1275      O1279   1.266       .  A
C1275      C2201   1.480       .  S
O1280      C1283   1.270       .  A
O1280     Cd1285   2.496       .  S
C1281      O1290   1.265       .  A
C1281      O1286   1.269       .  A
C1281      C2248   1.477       .  S
O1282      C1288   1.272       .  A
O1282     Cd1285   2.481       .  S
C1283      O1291   1.264       .  A
C1283      C2258   1.472       .  S
C1284      O1289   1.270       .  A
C1284      O1287   1.263       .  A
C1284      C2198   1.479       .  S
Cd1285     O1292   2.414       .  S
Cd1285     O1291   2.412       .  S
Cd1285     O1289   2.492       .  S
Cd1285     O1287   2.426       .  S
C1288      O1292   1.268       .  A
C1288      C2178   1.479       .  S
O1293      C1296   1.270       .  A
O1293     Cd1298   2.461       .  S
C1294      O1303   1.263       .  A
C1294      O1299   1.269       .  A
C1294      C2168   1.476       .  S
O1295      C1301   1.269       .  A
C1296      O1304   1.269       .  A
C1296      C2138   1.476       .  S
C1297      O1302   1.270       .  A
C1297      O1300   1.264       .  A
C1297      C2148   1.475       .  S
Cd1298     O1304   2.416       .  S
Cd1298     O1303   2.431       .  S
Cd1298     O1299   2.472       .  S
Cd1298     O1302   2.491       .  S
Cd1298     O1300   2.433       .  S
C1301      O1305   1.264       .  A
C1301      C2158   1.477       .  S
O1306      C1309   1.270       .  A
O1306     Cd1311   2.480       .  S
C1307      O1316   1.267       .  A
C1307      O1312   1.270       .  A
C1307      C2108   1.477       .  S
O1308      C1314   1.271       .  A
C1309      O1317   1.265       .  A
C1309      C2171   1.477       .  S
C1310      O1315   1.271       .  A
C1310      O1313   1.264       .  A
C1310      C2128   1.476       .  S
Cd1311     O1317   2.427       .  S
Cd1311     O1316   2.414       .  S
Cd1311     O1312   2.480       .  S
Cd1311     O1315   2.501       .  S
Cd1311     O1313   2.426       .  S
C1314      O1318   1.264       .  A
C1314      C2118   1.484       .  S
O1319      C1322   1.270       .  A
O1319     Cd1324   2.511       .  S
C1320      O1329   1.265       .  A
C1320      O1325   1.270       .  A
C1320      C2131   1.481       .  S
O1321      C1327   1.273       .  A
O1321     Cd1324   2.491       .  S
C1322      O1330   1.265       .  A
C1322      C2121   1.474       .  S
C1323      O1328   1.272       .  A
C1323      O1326   1.265       .  A
C1323      C2088   1.484       .  S
Cd1324     O1331   2.436       .  S
Cd1324     O1330   2.425       .  S
Cd1324     O1329   2.448       .  S
Cd1324     O1325   2.477       .  S
Cd1324     O1328   2.524       .  S
Cd1324     O1326   2.407       .  S
C1327      O1331   1.265       .  A
C1327      C2098   1.484       .  S
O1332      C1335   1.270       .  A
O1332     Cd1337   2.486       .  S
C1333      O1342   1.266       .  A
C1333      O1338   1.269       .  A
C1333      C2151   1.477       .  S
O1334      C1340   1.272       .  A
O1334     Cd1337   2.483       .  S
C1335      O1343   1.265       .  A
C1335      C2161   1.475       .  S
C1336      O1341   1.271       .  A
C1336      O1339   1.263       .  A
C1336      C2101   1.483       .  S
Cd1337     O1344   2.406       .  S
Cd1337     O1343   2.436       .  S
Cd1337     O1342   2.450       .  S
Cd1337     O1338   2.472       .  S
Cd1337     O1341   2.505       .  S
Cd1337     O1339   2.430       .  S
C1340      O1344   1.267       .  A
C1340      C2078   1.478       .  S
O1345      C1348   1.271       .  A
O1345     Cd1350   2.488       .  S
C1346      O1355   1.265       .  A
C1346      O1351   1.270       .  A
C1346      C2048   1.476       .  S
O1347      C1353   1.271       .  A
O1347     Cd1350   2.499       .  S
C1348      O1356   1.265       .  A
C1348      C2058   1.473       .  S
C1349      O1354   1.272       .  A
C1349      O1352   1.268       .  A
C1349      C2281   1.479       .  S
Cd1350     O1357   2.424       .  S
Cd1350     O1356   2.415       .  S
Cd1350     O1355   2.441       .  S
Cd1350     O1351   2.467       .  S
Cd1350     O1354   2.473       .  S
Cd1350     O1352   2.414       .  S
C1353      O1357   1.263       .  A
C1353      C2068   1.481       .  S
O1358      C1361   1.270       .  A
O1358     Cd1363   2.477       .  S
C1359      O1368   1.265       .  A
C1359      O1364   1.270       .  A
C1359      C2038   1.470       .  S
O1360      C1366   1.272       .  A
O1360     Cd1363   2.476       .  S
C1361      O1369   1.264       .  A
C1361      C2031   1.471       .  S
C1362      O1367   1.271       .  A
C1362      O1365   1.263       .  A
C1362      C2071   1.482       .  S
Cd1363     O1370   2.411       .  S
Cd1363     O1369   2.411       .  S
Cd1363     O1368   2.423       .  S
Cd1363     O1364   2.459       .  S
Cd1363     O1367   2.493       .  S
Cd1363     O1365   2.442       .  S
C1366      O1370   1.267       .  A
C1366      C2018   1.479       .  S
O1371      C1374   1.270       .  A
O1371     Cd1376   2.495       .  S
C1372      O1381   1.265       .  A
C1372      O1377   1.269       .  A
C1372      C2061   1.473       .  S
O1373      C1379   1.272       .  A
O1373     Cd1376   2.480       .  S
C1374      O1382   1.264       .  A
C1375      O1380   1.270       .  A
C1375      O1378   1.263       .  A
C1375      C2008   1.480       .  S
Cd1376     O1383   2.399       .  S
Cd1376     O1382   2.420       .  S
Cd1376     O1381   2.434       .  S
Cd1376     O1377   2.460       .  S
Cd1376     O1380   2.488       .  S
Cd1376     O1378   2.438       .  S
C1379      O1383   1.267       .  A
C1379      C2111   1.477       .  S
O1384      C1387   1.271       .  A
O1384     Cd1389   2.479       .  S
C1385      O1394   1.265       .  A
C1385      O1390   1.270       .  A
C1385      C2028   1.471       .  S
O1386      C1392   1.272       .  A
O1386     Cd1389   2.492       .  S
C1387      O1395   1.266       .  A
C1387      C2041   1.472       .  S
C1388      O1393   1.273       .  A
C1388      O1391   1.268       .  A
C1388      C1998   1.479       .  S
Cd1389     O1396   2.419       .  S
Cd1389     O1395   2.413       .  S
Cd1389     O1394   2.415       .  S
Cd1389     O1390   2.463       .  S
Cd1389     O1393   2.473       .  S
Cd1389     O1391   2.417       .  S
C1392      O1396   1.263       .  A
C1392      C2011   1.480       .  S
O1397      C1400   1.271       .  A
O1397     Cd1402   2.485       .  S
C1398      O1407   1.265       .  A
C1398      O1403   1.270       .  A
C1398      C1968   1.477       .  S
O1399      C1405   1.271       .  A
O1399     Cd1402   2.491       .  S
C1400      O1408   1.266       .  A
C1400      C1978   1.476       .  S
C1401      O1406   1.273       .  A
C1401      O1404   1.268       .  A
C1401      C1958   1.479       .  S
Cd1402     O1409   2.424       .  S
Cd1402     O1408   2.425       .  S
Cd1402     O1407   2.439       .  S
Cd1402     O1403   2.469       .  S
Cd1402     O1406   2.478       .  S
Cd1402     O1404   2.405       .  S
C1405      O1409   1.263       .  A
C1405      C1988   1.480       .  S
O1410      C1413   1.270       .  A
O1410     Cd1415   2.484       .  S
C1411      O1420   1.264       .  A
C1411      O1416   1.270       .  A
C1411      C1938   1.477       .  S
O1412      C1418   1.270       .  A
O1412     Cd1415   2.499       .  S
C1413      O1421   1.264       .  A
C1413      C1948   1.477       .  S
C1414      O1419   1.271       .  A
C1414      O1417   1.268       .  A
C1414      C2081   1.480       .  S
Cd1415     O1422   2.428       .  S
Cd1415     O1421   2.441       .  S
Cd1415     O1420   2.433       .  S
Cd1415     O1416   2.500       .  S
Cd1415     O1419   2.485       .  S
Cd1415     O1417   2.412       .  S
C1418      O1422   1.263       .  A
C1418      C1991   1.480       .  S
O1423      C1426   1.270       .  A
O1423     Cd1428   2.473       .  S
C1424      O1433   1.263       .  A
C1424      O1429   1.269       .  A
C1424      C1928   1.479       .  S
O1425      C1431   1.270       .  A
O1425     Cd1428   2.501       .  S
C1426      O1434   1.268       .  A
C1426      C2021   1.479       .  S
C1427      O1432   1.268       .  A
C1427      O1430   1.265       .  A
C1427      C1981   1.478       .  S
Cd1428     O1435   2.429       .  S
Cd1428     O1434   2.429       .  S
Cd1428     O1433   2.420       .  S
Cd1428     O1429   2.505       .  S
Cd1428     O1432   2.477       .  S
Cd1428     O1430   2.456       .  S
C1431      O1435   1.264       .  A
C1431      C1971   1.476       .  S
O1436      C1439   1.271       .  A
O1436     Cd1441   2.483       .  S
C1437      O1446   1.263       .  A
C1437      O1442   1.269       .  A
C1437      C1931   1.478       .  S
O1438      C1444   1.270       .  A
O1438     Cd1441   2.480       .  S
C1439      O1447   1.268       .  A
C1439      C2191   1.480       .  S
C1440      O1443   1.264       .  A
C1440      C1951   1.474   1_554  S
Cd1441     O1448   2.446       .  S
Cd1441     O1447   2.421       .  S
Cd1441     O1446   2.447       .  S
Cd1441     O1442   2.472       .  S
Cd1441     O1445   2.496       .  S
C1444      O1448   1.264       .  A
C1444      C1941   1.478       .  S
O1449      C1452   1.271       .  A
O1449     Cd1454   2.510       .  S
C1450      O1459   1.265       .  A
C1450      O1455   1.271       .  A
C1450      C1908   1.478       .  S
O1451      C1457   1.271       .  A
O1451     Cd1454   2.492       .  S
C1452      O1460   1.264       .  A
C1452      C1898   1.480       .  S
C1453      O1458   1.270       .  A
C1453      O1456   1.264       .  A
C1453      C1918   1.482       .  S
Cd1454     O1461   2.414       .  S
Cd1454     O1460   2.411       .  S
Cd1454     O1459   2.426       .  S
Cd1454     O1455   2.515       .  S
Cd1454     O1458   2.494       .  S
Cd1454     O1456   2.442       .  S
C1457      O1461   1.267       .  A
C1457      C1961   1.480       .  S
O1462      C1465   1.270       .  A
O1462     Cd1467   2.465       .  S
C1463      O1472   1.265       .  A
C1463      O1468   1.271       .  A
O1464      C1470   1.272       .  A
O1464     Cd1467   2.497       .  S
C1465      O1473   1.266       .  A
C1465      C1888   1.477       .  S
C1466      O1471   1.272       .  A
C1466      O1469   1.267       .  A
C1466      C2341   1.480       .  S
Cd1467     O1474   2.434       .  S
Cd1467     O1473   2.443       .  S
Cd1467     O1472   2.420       .  S
Cd1467     O1468   2.492       .  S
Cd1467     O1471   2.490       .  S
Cd1467     O1469   2.408       .  S
C1470      O1474   1.264       .  A
C1470      C1921   1.482       .  S
O1475      C1478   1.270       .  A
O1475     Cd1480   2.468       .  S
C1476      O1485   1.263       .  A
C1476      O1481   1.268       .  A
C1476      C1868   1.478       .  S
O1477      C1483   1.268       .  A
O1477     Cd1480   2.489       .  S
C1478      O1486   1.268       .  A
C1478      C2241   1.478       .  S
C1479      O1484   1.269       .  A
C1479      O1482   1.264       .  A
C1479      C1891   1.476       .  S
Cd1480     O1487   2.451       .  S
Cd1480     O1486   2.427       .  S
Cd1480     O1485   2.437       .  S
Cd1480     O1481   2.487       .  S
Cd1480     O1484   2.495       .  S
Cd1480     O1482   2.433       .  S
C1483      O1487   1.264       .  A
C1483      C1881   1.478       .  S
O1488      C1491   1.270       .  A
O1488     Cd1493   2.488       .  S
C1489      O1498   1.266       .  A
C1489      O1494   1.271       .  A
C1489      C1871   1.477       .  S
O1490      C1496   1.268       .  A
O1490     Cd1493   2.503       .  S
C1491      O1499   1.264       .  A
C1491      C1858   1.475       .  S
C1492      O1497   1.269       .  A
C1492      O1495   1.263       .  A
C1492      C1911   1.481       .  S
Cd1493     O1500   2.426       .  S
Cd1493     O1499   2.404       .  S
Cd1493     O1498   2.433       .  S
Cd1493     O1494   2.472       .  S
Cd1493     O1497   2.477       .  S
Cd1493     O1495   2.460       .  S
C1496      O1500   1.263       .  A
C1496      C1901   1.473       .  S
O1501      C1504   1.273       .  A
O1501     Cd1506   2.501       .  S
C1502      C1838   1.477       .  S
O1503      C1509   1.271       .  A
O1503     Cd1506   2.485       .  S
C1504      O1512   1.264       .  A
C1504      C1831   1.475       .  S
C1505      O1510   1.271       .  A
C1505      O1508   1.265       .  A
C1505      C1848   1.479       .  S
Cd1506     O1513   2.412       .  S
Cd1506     O1512   2.386       .  S
Cd1506     O1511   2.414       .  S
Cd1506     O1507   2.502       .  S
Cd1506     O1510   2.477       .  S
Cd1506     O1508   2.431       .  S
C1509      O1513   1.267       .  A
C1509      C2311   1.480       .  S
O1514      C1517   1.270       .  A
O1514     Cd1519   2.474       .  S
C1515      O1524   1.265       .  A
C1515      O1520   1.269       .  A
C1515      C1808   1.474       .  S
O1516      C1522   1.270       .  A
O1516     Cd1519   2.485       .  S
C1517      O1525   1.265       .  A
C1517      C1818   1.477       .  S
C1518      O1523   1.271       .  A
C1518      O1521   1.267       .  A
C1518      C1798   1.480       .  S
Cd1519     O1526   2.431       .  S
Cd1519     O1525   2.434       .  S
Cd1519     O1524   2.430       .  S
Cd1519     O1520   2.492       .  S
Cd1519     O1523   2.489       .  S
Cd1519     O1521   2.410       .  S
C1522      O1526   1.263       .  A
C1522      C1851   1.478       .  S
O1527      C1530   1.269       .  A
O1527     Cd1532   2.497       .  S
C1528      O1537   1.269       .  A
C1528      O1533   1.270       .  A
C1528      C2001   1.479       .  S
O1529      C1535   1.270       .  A
O1529     Cd1532   2.498       .  S
C1530      O1538   1.263       .  A
C1530      C1788   1.481       .  S
C1531      O1536   1.269       .  A
C1531      O1534   1.265       .  A
C1531      C1811   1.477       .  S
Cd1532     O1539   2.411       .  S
Cd1532     O1538   2.440       .  S
Cd1532     O1537   2.441       .  S
Cd1532     O1533   2.457       .  S
Cd1532     O1536   2.480       .  S
Cd1532     O1534   2.447       .  S
C1535      O1539   1.263       .  A
C1535      C1821   1.472       .  S
O1540      C1543   1.270       .  A
O1540     Cd1545   2.493       .  S
C1541      O1550   1.265       .  A
C1541      O1546   1.271       .  A
C1541      C1791   1.480       .  S
O1542      C1548   1.268       .  A
O1542     Cd1545   2.499       .  S
C1543      O1551   1.265       .  A
C1543      C2211   1.478       .  S
C1544      O1549   1.268       .  A
C1544      O1547   1.264       .  A
C1544      C1841   1.478       .  S
Cd1545     O1552   2.412       .  S
Cd1545     O1551   2.413       .  S
Cd1545     O1550   2.432       .  S
Cd1545     O1546   2.479       .  S
Cd1545     O1549   2.473       .  S
Cd1545     O1547   2.450       .  S
C1548      O1552   1.263       .  A
C1548      C1828   1.470       .  S
O1553      C1556   1.270       .  A
O1553     Cd1558   2.474       .  S
C1554      O1563   1.265       .  A
C1554      O1559   1.271       .  A
C1554      C1758   1.475       .  S
O1555      C1561   1.271       .  A
O1555     Cd1558   2.507       .  S
C1556      O1564   1.265       .  A
C1556      C1768   1.477       .  S
C1557      O1562   1.272       .  A
C1557      O1560   1.267       .  A
C1557      C2291   1.479       .  S
Cd1558     O1565   2.427       .  S
Cd1558     O1564   2.441       .  S
Cd1558     O1563   2.419       .  S
Cd1558     O1559   2.491       .  S
Cd1558     O1562   2.482       .  S
Cd1558     O1560   2.411       .  S
C1561      O1565   1.263       .  A
C1561      C1778   1.482       .  S
O1566      C1569   1.270       .  A
O1566     Cd1571   2.477       .  S
C1567      O1576   1.265       .  A
C1567      O1572   1.269       .  A
C1567      C1738   1.477       .  S
O1568      C1574   1.271       .  A
O1568     Cd1571   2.506       .  S
C1569      O1577   1.266       .  A
C1569      C1748   1.472       .  S
C1570      O1575   1.273       .  A
C1570      O1573   1.267       .  A
C1570      C1728   1.482   1_655  S
Cd1571     O1578   2.436       .  S
Cd1571     O1577   2.423       .  S
Cd1571     O1576   2.437       .  S
Cd1571     O1572   2.475       .  S
Cd1571     O1575   2.492       .  S
Cd1571     O1573   2.419       .  S
C1574      O1578   1.263       .  A
C1574      C1781   1.483       .  S
O1579     Cd1584   2.488       .  S
C1580      O1589   1.266       .  A
C1580      O1585   1.270       .  A
C1580      C1761   1.477       .  S
O1581      C1587   1.272       .  A
O1581     Cd1584   2.489       .  S
C1582      C1771   1.473   1_554  S
C1583      O1588   1.272       .  A
C1583      O1586   1.267       .  A
C1583      C2141   1.477       .  S
Cd1584     O1591   2.420       .  S
Cd1584     O1590   2.415       .  S
Cd1584     O1589   2.452       .  S
Cd1584     O1585   2.460       .  S
Cd1584     O1588   2.477       .  S
Cd1584     O1586   2.403       .  S
C1587      O1591   1.263       .  A
C1587      C1718   1.479       .  S
O1592      C1595   1.270       .  A
O1592     Cd1597   2.475       .  S
C1593      O1602   1.265       .  A
C1593      O1598   1.270       .  A
C1593      C1741   1.478       .  S
O1594      C1600   1.270       .  A
O1594     Cd1597   2.486       .  S
C1595      O1603   1.265       .  A
C1595      C1751   1.473       .  S
C1596      O1601   1.272       .  A
C1596      O1599   1.267       .  A
C1596      C1861   1.475       .  S
Cd1597     O1604   2.431       .  S
Cd1597     O1603   2.428       .  S
Cd1597     O1602   2.433       .  S
Cd1597     O1598   2.488       .  S
Cd1597     O1601   2.474       .  S
Cd1597     O1599   2.400       .  S
C1600      O1604   1.263       .  A
C1600      C1721   1.479       .  S
O1605      C1608   1.270       .  A
O1605     Cd1610   2.480       .  S
C1606      O1615   1.265       .  A
C1606      O1611   1.270       .  A
C1606      C1698   1.474       .  S
O1607      C1613   1.272       .  A
O1607     Cd1610   2.503       .  S
C1608      O1616   1.265       .  A
C1608      C1691   1.475       .  S
C1609      O1614   1.270       .  A
C1609      O1612   1.264       .  A
C1609      C1708   1.483       .  S
Cd1610     O1617   2.418       .  S
Cd1610     O1616   2.423       .  S
Cd1610     O1615   2.409       .  S
Cd1610     O1611   2.490       .  S
Cd1610     O1614   2.488       .  S
Cd1610     O1612   2.455       .  S
C1613      O1617   1.267       .  A
C1613      C2091   1.484       .  S
O1618      C1621   1.270       .  A
O1618     Cd1623   2.486       .  S
C1619      O1628   1.265       .  A
C1619      O1624   1.270       .  A
C1619      C1668   1.480       .  S
O1620      C1626   1.271       .  A
O1620     Cd1623   2.508       .  S
C1621      O1629   1.265       .  A
C1621      C1678   1.479       .  S
C1622      O1627   1.272       .  A
C1622      O1625   1.267       .  A
C1622      C1801   1.482       .  S
Cd1623     O1630   2.428       .  S
Cd1623     O1629   2.447       .  S
Cd1623     O1628   2.438       .  S
Cd1623     O1624   2.499       .  S
Cd1623     O1627   2.507       .  S
Cd1623     O1625   2.400       .  S
C1626      O1630   1.263       .  A
C1626      C1711   1.483       .  S
O1631      C1634   1.270       .  A
O1631     Cd1636   2.461       .  S
C1632      O1641   1.263       .  A
C1632      O1637   1.268       .  A
C1632      C1658   1.478       .  S
O1633      C1639   1.270       .  A
O1633     Cd1636   2.497       .  S
C1634      O1642   1.269       .  A
C1634      C2181   1.477       .  S
C1635      O1640   1.268       .  A
C1635      O1638   1.263       .  A
C1635      C1701   1.475       .  S
Cd1636     O1643   2.416       .  S
Cd1636     O1642   2.420       .  S
Cd1636     O1641   2.440       .  S
Cd1636     O1637   2.480       .  S
Cd1636     O1640   2.467       .  S
Cd1636     O1638   2.453       .  S
C1639      O1643   1.263       .  A
O1644      C1647   1.271       .  A
O1644     Cd1649   2.479       .  S
C1645      O1654   1.263       .  A
C1645      O1650   1.268       .  A
C1645      C1661   1.481       .  S
O1646      C1652   1.268       .  A
O1646     Cd1649   2.488       .  S
C1647      O1655   1.268       .  A
C1647      C1731   1.482       .  S
C1648      O1653   1.270       .  A
C1648      O1651   1.264       .  A
C1648      C1681   1.478       .  S
Cd1649     O1656   2.463       .  S
Cd1649     O1655   2.429       .  S
Cd1649     O1654   2.446       .  S
Cd1649     O1650   2.497       .  S
Cd1649     O1653   2.496       .  S
Cd1649     O1651   2.437       .  S
C1652      O1656   1.264       .  A
C1652      C1671   1.481       .  S
C1657      C1658   1.407       .  A
C1657      C1662   1.399       .  A
C1657      H1663   1.083       .  S
C1658      C1659   1.403       .  A
C1659      C1660   1.398       .  A
C1659      H1664   1.083       .  S
C1660      C1661   1.407       .  A
C1660      H1665   1.083       .  S
C1661      C1662   1.403       .  A
C1662      H1666   1.083       .  S
C1667      C1668   1.405       .  A
C1667      H1673   1.083       .  S
C1668      C1669   1.404       .  A
C1669      C1670   1.402       .  A
C1669      H1674   1.083       .  S
C1670      H1675   1.083       .  S
C1671      C1672   1.404       .  A
C1672      H1676   1.083       .  S
C1677      C1678   1.407       .  A
C1677      C1682   1.400       .  A
C1677      H1683   1.083       .  S
C1678      C1679   1.403       .  A
C1679      C1680   1.399       .  A
C1679      H1684   1.083       .  S
C1680      C1681   1.407       .  A
C1680      H1685   1.083       .  S
C1681      C1682   1.403       .  A
C1682      H1686   1.083       .  S
C1687      C1688   1.401       .  A
C1687      C1692   1.399       .  A
C1687      H1693   1.083       .  S
C1688      C1689   1.405       .  A
C1689      C1690   1.397       .  A
C1689      H1694   1.083       .  S
C1690      C1691   1.402       .  A
C1690      H1695   1.083       .  S
C1691      C1692   1.407       .  A
C1692      H1696   1.083       .  S
C1697      C1698   1.404       .  A
C1697      C1702   1.401       .  A
C1697      H1703   1.083       .  S
C1698      C1699   1.404       .  A
C1699      C1700   1.394       .  A
C1699      H1704   1.083       .  S
C1700      C1701   1.402       .  A
C1700      H1705   1.083       .  S
C1701      C1702   1.407       .  A
C1702      H1706   1.083       .  S
C1707      C1708   1.409       .  A
C1707      C1712   1.402       .  A
C1707      H1713   1.083       .  S
C1708      C1709   1.403       .  A
C1709      C1710   1.398       .  A
C1709      H1714   1.083       .  S
C1710      C1711   1.408       .  A
C1710      H1715   1.083       .  S
C1711      C1712   1.404       .  A
C1712      H1716   1.083       .  S
C1717      C1718   1.402       .  A
C1717      C1722   1.399       .  A
C1717      H1723   1.083       .  S
C1718      C1719   1.408       .  A
C1719      C1720   1.398       .  A
C1719      H1724   1.083       .  S
C1720      C1721   1.402       .  A
C1720      H1725   1.083       .  S
C1721      C1722   1.408       .  A
C1722      H1726   1.083       .  S
C1727      C1728   1.405       .  A
C1727      C1732   1.395       .  A
C1727      H1733   1.083       .  S
C1728      C1729   1.406       .  A
C1729      C1730   1.404       .  A
C1729      H1734   1.082       .  S
C1730      C1731   1.407       .  A
C1730      H1735   1.083       .  S
C1731      C1732   1.404       .  A
C1732      H1736   1.083       .  S
C1737      C1738   1.403       .  A
C1737      C1742   1.398       .  A
C1737      H1743   1.083       .  S
C1738      C1739   1.406       .  A
C1739      C1740   1.400       .  A
C1739      H1744   1.083       .  S
C1740      C1741   1.403       .  A
C1740      H1745   1.083       .  S
C1741      C1742   1.406       .  A
C1742      H1746   1.083       .  S
C1747      C1748   1.402       .  A
C1747      C1752   1.399       .  A
C1747      H1753   1.083       .  S
C1748      C1749   1.405       .  A
C1749      H1754   1.083       .  S
C1750      C1751   1.402       .  A
C1750      H1755   1.083       .  S
C1757      C1758   1.404       .  A
C1757      C1762   1.402       .  A
C1757      H1763   1.083       .  S
C1758      C1759   1.404       .  A
C1759      C1760   1.395       .  A
C1759      H1764   1.083       .  S
C1760      C1761   1.402       .  A
C1760      H1765   1.083       .  S
C1761      C1762   1.408       .  A
C1762      H1766   1.083       .  S
C1767      C1768   1.408       .  A
C1767      C1772   1.400       .  A
C1767      H1773   1.083       .  S
C1768      C1769   1.403       .  A
C1769      C1770   1.396       .  A
C1769      H1774   1.083       .  S
C1770      C1771   1.405       .  A
C1770      H1775   1.083       .  S
C1771      C1772   1.402       .  A
C1772      H1776   1.083       .  S
C1777      C1778   1.409       .  A
C1777      C1782   1.400       .  A
C1777      H1783   1.083       .  S
C1778      C1779   1.402       .  A
C1779      C1780   1.400       .  A
C1779      H1784   1.083       .  S
C1780      C1781   1.409       .  A
C1780      H1785   1.083       .  S
C1781      C1782   1.403       .  A
C1782      H1786   1.083       .  S
C1787      C1788   1.407       .  A
C1787      C1792   1.398       .  A
C1787      H1793   1.083       .  S
C1788      C1789   1.403       .  A
C1789      C1790   1.400       .  A
C1789      H1794   1.083       .  S
C1790      C1791   1.408       .  A
C1790      H1795   1.083       .  S
C1791      C1792   1.402       .  A
C1792      H1796   1.083       .  S
C1797      C1798   1.408       .  A
C1797      C1802   1.407       .  A
C1797      H1803   1.083       .  S
C1798      C1799   1.403       .  A
C1799      C1800   1.391       .  A
C1799      H1804   1.083       .  S
C1800      C1801   1.404       .  A
C1800      H1805   1.083       .  S
C1801      C1802   1.407       .  A
C1802      H1806   1.083       .  S
C1807      C1808   1.404       .  A
C1807      C1812   1.397       .  A
C1807      H1813   1.083       .  S
C1808      C1809   1.402       .  A
C1809      C1810   1.401       .  A
C1809      H1814   1.083       .  S
C1810      C1811   1.407       .  A
C1810      H1815   1.083       .  S
C1811      C1812   1.403       .  A
C1812      H1816   1.083       .  S
C1817      C1822   1.397       .  A
C1819      C1820   1.400       .  A
C1820      C1821   1.401       .  A
C1820      H1825   1.083       .  S
C1821      C1822   1.405       .  A
C1822      H1826   1.083       .  S
C1827      C1828   1.400       .  A
C1827      C1832   1.390       .  A
C1827      H1833   1.084       .  S
C1828      C1829   1.406       .  A
C1829      C1830   1.405       .  A
C1829      H1834   1.083       .  S
C1830      C1831   1.405       .  A
C1830      H1835   1.083       .  S
C1831      C1832   1.405       .  A
C1832      H1836   1.083       .  S
C1837      C1838   1.405       .  A
C1837      C1842   1.396       .  A
C1837      H1843   1.083       .  S
C1838      C1839   1.403       .  A
C1839      C1840   1.402       .  A
C1839      H1844   1.083       .  S
C1840      C1841   1.408       .  A
C1840      H1845   1.083       .  S
C1841      C1842   1.403       .  A
C1842      H1846   1.083       .  S
C1847      C1848   1.407       .  A
C1847      C1852   1.398       .  A
C1847      H1853   1.083       .  S
C1848      C1849   1.403       .  A
C1849      C1850   1.398       .  A
C1849      H1854   1.083       .  S
C1850      C1851   1.407       .  A
C1850      H1855   1.083       .  S
C1851      C1852   1.403       .  A
C1852      H1856   1.083       .  S
C1857      C1858   1.404   1_545  A
C1857      C1862   1.391       .  A
C1857      H1863   1.083   1_545  S
C1858      C1859   1.405   1_565  A
C1859      C1860   1.402       .  A
C1859      H1864   1.083   1_545  S
C1860      C1861   1.406       .  A
C1860      H1865   1.082       .  S
C1861      C1862   1.403       .  A
C1862      H1866   1.084       .  S
C1867      C1868   1.407       .  A
C1867      C1872   1.397       .  A
C1867      H1873   1.083       .  S
C1868      C1869   1.403       .  A
C1869      C1870   1.399       .  A
C1869      H1874   1.083       .  S
C1870      C1871   1.407       .  A
C1870      H1875   1.083       .  S
C1871      C1872   1.402       .  A
C1872      H1876   1.083       .  S
C1877      C1878   1.405       .  A
C1877      C1882   1.398       .  A
C1877      H1883   1.083       .  S
C1878      C1879   1.402       .  A
C1879      C1880   1.401       .  A
C1879      H1884   1.083       .  S
C1880      C1881   1.407       .  A
C1880      H1885   1.083       .  S
C1881      C1882   1.403       .  A
C1882      H1886   1.083       .  S
C1887      C1888   1.403       .  A
C1887      C1892   1.397       .  A
C1887      H1893   1.083       .  S
C1888      C1889   1.407       .  A
C1889      C1890   1.401       .  A
C1889      H1894   1.083       .  S
C1890      C1891   1.403       .  A
C1890      H1895   1.083       .  S
C1891      C1892   1.405       .  A
C1892      H1896   1.083       .  S
C1897      C1902   1.405       .  A
C1898      C1899   1.406   1_556  A
C1899      H1904   1.083       .  S
C1900      C1901   1.400       .  A
C1900      H1905   1.084       .  S
C1901      C1902   1.406       .  A
C1902      H1906   1.083       .  S
C1907      C1908   1.404       .  A
C1907      C1912   1.396       .  A
C1907      H1913   1.083       .  S
C1908      C1909   1.404       .  A
C1909      C1910   1.404       .  A
C1909      H1914   1.083       .  S
C1910      C1911   1.410       .  A
C1910      H1915   1.083       .  S
C1911      C1912   1.403       .  A
C1912      H1916   1.083       .  S
C1917      C1918   1.404       .  A
C1917      C1922   1.400       .  A
C1917      H1923   1.083       .  S
C1918      C1919   1.408       .  A
C1919      C1920   1.400       .  A
C1919      H1924   1.083       .  S
C1920      C1921   1.403       .  A
C1920      H1925   1.083       .  S
C1921      C1922   1.408       .  A
C1922      H1926   1.083       .  S
C1927      C1928   1.406       .  A
C1927      C1932   1.395       .  A
C1927      H1933   1.083       .  S
C1928      C1929   1.404       .  A
C1929      C1930   1.401       .  A
C1929      H1934   1.083       .  S
C1930      C1931   1.409       .  A
C1930      H1935   1.083       .  S
C1931      C1932   1.401       .  A
C1932      H1936   1.083       .  S
C1937      C1938   1.405       .  A
C1937      C1942   1.398       .  A
C1937      H1943   1.083       .  S
C1938      C1939   1.403       .  A
C1939      C1940   1.401       .  A
C1939      H1944   1.083       .  S
C1940      C1941   1.407       .  A
C1940      H1945   1.083       .  S
C1941      C1942   1.403       .  A
C1942      H1946   1.083       .  S
C1947      C1948   1.402       .  A
C1947      C1952   1.396       .  A
C1947      H1953   1.083       .  S
C1948      C1949   1.407       .  A
C1949      C1950   1.401       .  A
C1949      H1954   1.083       .  S
C1950      C1951   1.403       .  A
C1950      H1955   1.083       .  S
C1951      C1952   1.405       .  A
C1952      H1956   1.083       .  S
C1957      C1958   1.406       .  A
C1957      C1962   1.404       .  A
C1957      H1963   1.083       .  S
C1958      C1959   1.404       .  A
C1959      C1960   1.392       .  A
C1959      H1964   1.083       .  S
C1960      C1961   1.404       .  A
C1960      H1965   1.083       .  S
C1961      C1962   1.407       .  A
C1962      H1966   1.083       .  S
C1967      C1968   1.408       .  A
C1967      C1972   1.401       .  A
C1967      H1973   1.083       .  S
C1968      C1969   1.403       .  A
C1969      C1970   1.397       .  A
C1969      H1974   1.083       .  S
C1970      C1971   1.405       .  A
C1970      H1975   1.083       .  S
C1971      C1972   1.403       .  A
C1972      H1976   1.083       .  S
C1977      C1978   1.403       .  A
C1977      C1982   1.401       .  A
C1977      H1983   1.083       .  S
C1978      C1979   1.406       .  A
C1979      H1984   1.083       .  S
C1980      C1981   1.403       .  A
C1980      H1985   1.083       .  S
C1982      H1986   1.083       .  S
C1987      C1988   1.402       .  A
C1987      C1992   1.398       .  A
C1987      H1993   1.083       .  S
C1988      C1989   1.408       .  A
C1989      C1990   1.399       .  A
C1989      H1994   1.083       .  S
C1990      C1991   1.403       .  A
C1990      H1995   1.083       .  S
C1991      C1992   1.408       .  A
C1992      H1996   1.083       .  S
C1997      C1998   1.406   1_545  A
C1997      C2002   1.396       .  A
C1997      H2003   1.083   1_545  S
C1998      C1999   1.405   1_565  A
C1999      C2000   1.401       .  A
C1999      H2004   1.082   1_545  S
C2000      C2001   1.406       .  A
C2000      H2005   1.083       .  S
C2001      C2002   1.404       .  A
C2002      H2006   1.083       .  S
C2007      C2008   1.402       .  A
C2007      C2012   1.397       .  A
C2007      H2013   1.083       .  S
C2008      C2009   1.408       .  A
C2009      C2010   1.399       .  A
C2009      H2014   1.083       .  S
C2010      C2011   1.403       .  A
C2010      H2015   1.083       .  S
C2011      C2012   1.408       .  A
C2012      H2016   1.083       .  S
C2017      C2018   1.405       .  A
C2017      C2022   1.394       .  A
C2017      H2023   1.083       .  S
C2018      C2019   1.405       .  A
C2019      C2020   1.402       .  A
C2019      H2024   1.082       .  S
C2020      C2021   1.406   1_455  A
C2020      H2025   1.083       .  S
C2021      C2022   1.404   1_655  A
C2022      H2026   1.083       .  S
C2027      C2028   1.406   1_554  A
C2027      H2033   1.083       .  S
C2028      C2029   1.402       .  A
C2029      H2034   1.083       .  S
C2030      C2031   1.405       .  A
C2030      H2035   1.083       .  S
C2031      C2032   1.402       .  A
C2032      H2036   1.083       .  S
C2037      C2038   1.406       .  A
C2037      C2042   1.399       .  A
C2037      H2043   1.083       .  S
C2038      C2039   1.401       .  A
C2039      C2040   1.394       .  A
C2039      H2044   1.084       .  S
C2040      C2041   1.405       .  A
C2040      H2045   1.083       .  S
C2041      C2042   1.403       .  A
C2042      H2046   1.083       .  S
C2047      C2048   1.402       .  A
C2047      C2052   1.396       .  A
C2047      H2053   1.083       .  S
C2048      C2049   1.407       .  A
C2049      C2050   1.401       .  A
C2049      H2054   1.083       .  S
C2050      C2051   1.403       .  A
C2050      H2055   1.083       .  S
C2051      C2052   1.405       .  A
C2052      H2056   1.083       .  S
C2057      C2058   1.402       .  A
C2057      C2062   1.400       .  A
C2057      H2063   1.083       .  S
C2058      C2059   1.405       .  A
C2059      C2060   1.395       .  A
C2059      H2064   1.083       .  S
C2060      C2061   1.402       .  A
C2060      H2065   1.083       .  S
C2061      C2062   1.407       .  A
C2062      H2066   1.083       .  S
C2067      C2068   1.408       .  A
C2067      C2072   1.398       .  A
C2067      H2073   1.083       .  S
C2068      C2069   1.403       .  A
C2069      C2070   1.400       .  A
C2069      H2074   1.083       .  S
C2070      C2071   1.409       .  A
C2070      H2075   1.083       .  S
C2071      C2072   1.402       .  A
C2072      H2076   1.083       .  S
C2077      C2078   1.404       .  A
C2077      C2082   1.392       .  A
C2077      H2083   1.083       .  S
C2078      C2079   1.406       .  A
C2079      C2080   1.404       .  A
C2079      H2084   1.083       .  S
C2080      C2081   1.407       .  A
C2080      H2085   1.083       .  S
C2081      C2082   1.404       .  A
C2082      H2086   1.083       .  S
C2087      C2088   1.407       .  A
C2087      C2092   1.408       .  A
C2087      H2093   1.083       .  S
C2088      C2089   1.405       .  A
C2089      C2090   1.392       .  A
C2089      H2094   1.083       .  S
C2090      C2091   1.403       .  A
C2090      H2095   1.083       .  S
C2091      C2092   1.408       .  A
C2092      H2096   1.083       .  S
C2097      C2098   1.409       .  A
C2097      C2102   1.401       .  A
C2097      H2103   1.083       .  S
C2098      C2099   1.402       .  A
C2099      C2100   1.399       .  A
C2099      H2104   1.083       .  S
C2100      C2101   1.408   1_455  A
C2100      H2105   1.083   1_455  S
C2101      C2102   1.403   1_655  A
C2102      H2106   1.083       .  S
C2107      C2108   1.403       .  A
C2107      C2112   1.391       .  A
C2107      H2113   1.083       .  S
C2108      C2109   1.406       .  A
C2109      C2110   1.403       .  A
C2109      H2114   1.083       .  S
C2110      C2111   1.406       .  A
C2110      H2115   1.083       .  S
C2111      C2112   1.404       .  A
C2112      H2116   1.083       .  S
C2117      C2118   1.406       .  A
C2117      C2122   1.393       .  A
C2117      H2123   1.083       .  S
C2118      C2119   1.408       .  A
C2119      C2120   1.409       .  A
C2119      H2124   1.083       .  S
C2120      C2121   1.407       .  A
C2120      H2125   1.083       .  S
C2121      C2122   1.399       .  A
C2122      H2126   1.083       .  S
C2127      C2128   1.405       .  A
C2127      C2132   1.398       .  A
C2127      H2133   1.083       .  S
C2128      C2129   1.402       .  A
C2129      C2130   1.402       .  A
C2129      H2134   1.083       .  S
C2130      C2131   1.408       .  A
C2130      H2135   1.083       .  S
C2131      C2132   1.404       .  A
C2132      H2136   1.083       .  S
C2137      C2138   1.406       .  A
C2137      C2142   1.402       .  A
C2137      H2143   1.083       .  S
C2138      C2139   1.403       .  A
C2139      C2140   1.392       .  A
C2139      H2144   1.083       .  S
C2140      C2141   1.404       .  A
C2140      H2145   1.083       .  S
C2141      C2142   1.405       .  A
C2142      H2146   1.082       .  S
C2147      C2148   1.403       .  A
C2147      C2152   1.400       .  A
C2147      H2153   1.083       .  S
C2148      C2149   1.405       .  A
C2149      C2150   1.398       .  A
C2149      H2154   1.083       .  S
C2150      C2151   1.403       .  A
C2150      H2155   1.083       .  S
C2151      C2152   1.406       .  A
C2152      H2156   1.083       .  S
C2157      C2158   1.407       .  A
C2157      C2162   1.399       .  A
C2157      H2163   1.083       .  S
C2158      C2159   1.404       .  A
C2159      C2160   1.399       .  A
C2159      H2164   1.083       .  S
C2160      C2161   1.405       .  A
C2160      H2165   1.083       .  S
C2161      C2162   1.402       .  A
C2162      H2166   1.083       .  S
C2167      C2168   1.407       .  A
C2167      H2173   1.083       .  S
C2168      C2169   1.402   1_655  A
C2169      H2174   1.083       .  S
C2170      C2171   1.406       .  A
C2170      H2175   1.083       .  S
C2171      C2172   1.403       .  A
C2172      H2176   1.083       .  S
C2177      C2178   1.404       .  A
C2177      C2182   1.393       .  A
C2177      H2183   1.083       .  S
C2178      C2179   1.406       .  A
C2179      C2180   1.402       .  A
C2179      H2184   1.082       .  S
C2180      C2181   1.406       .  A
C2180      H2185   1.083       .  S
C2181      C2182   1.403       .  A
C2182      H2186   1.083       .  S
C2187      C2188   1.404       .  A
C2187      C2192   1.392       .  A
C2188      C2189   1.405       .  A
C2189      C2190   1.404       .  A
C2189      H2194   1.083       .  S
C2190      C2191   1.407       .  A
C2190      H2195   1.083       .  S
C2191      C2192   1.403       .  A
C2192      H2196   1.083       .  S
C2197      C2198   1.408       .  A
C2197      C2202   1.398       .  A
C2197      H2203   1.083       .  S
C2199      C2200   1.399       .  A
C2199      H2204   1.083       .  S
C2200      C2201   1.408       .  A
C2200      H2205   1.083       .  S
C2202      H2206   1.083       .  S
C2207      C2208   1.407       .  A
C2207      C2212   1.405       .  A
C2207      H2213   1.082       .  S
C2208      C2209   1.404       .  A
C2209      C2210   1.390       .  A
C2209      H2214   1.083       .  S
C2210      C2211   1.403       .  A
C2210      H2215   1.083       .  S
C2211      C2212   1.407       .  A
C2212      H2216   1.083       .  S
C2217      C2218   1.406       .  A
C2217      C2222   1.405       .  A
C2217      H2223   1.083       .  S
C2218      C2219   1.406       .  A
C2219      C2220   1.392       .  A
C2219      H2224   1.083       .  S
C2220      C2221   1.398       .  A
C2220      H2225   1.084       .  S
C2221      C2222   1.405       .  A
C2222      H2226   1.083       .  S
C2227      C2228   1.408       .  A
C2227      C2232   1.401       .  A
C2227      H2233   1.083       .  S
C2228      C2229   1.402       .  A
C2229      C2230   1.395       .  A
C2229      H2234   1.083       .  S
C2230      C2231   1.405       .  A
C2230      H2235   1.083       .  S
C2231      C2232   1.403       .  A
C2232      H2236   1.083       .  S
C2237      C2238   1.405       .  A
C2237      C2242   1.402       .  A
C2237      H2243   1.082       .  S
C2238      C2239   1.405       .  A
C2239      C2240   1.394       .  A
C2239      H2244   1.083       .  S
C2240      C2241   1.404       .  A
C2240      H2245   1.083       .  S
C2241      C2242   1.406       .  A
C2242      H2246   1.083       .  S
C2247      C2248   1.408       .  A
C2247      C2252   1.400       .  A
C2247      H2253   1.083       .  S
C2248      C2249   1.403       .  A
C2249      C2250   1.396       .  A
C2249      H2254   1.083       .  S
C2250      C2251   1.404       .  A
C2250      H2255   1.083       .  S
C2251      C2252   1.402       .  A
C2252      H2256   1.083       .  S
C2257      C2258   1.405       .  A
C2257      C2262   1.395       .  A
C2257      H2263   1.083       .  S
C2258      C2259   1.402       .  A
C2259      C2260   1.400       .  A
C2259      H2264   1.083       .  S
C2260      C2261   1.407       .  A
C2260      H2265   1.083       .  S
C2261      C2262   1.402       .  A
C2262      H2266   1.083       .  S
C2267      C2268   1.409       .  A
C2267      C2272   1.400       .  A
C2267      H2273   1.083       .  S
C2268      C2269   1.402       .  A
C2269      C2270   1.399       .  A
C2269      H2274   1.083       .  S
C2270      C2271   1.408       .  A
C2270      H2275   1.083       .  S
C2271      C2272   1.403       .  A
C2272      H2276   1.083       .  S
C2277      C2278   1.404       .  A
C2277      C2282   1.395       .  A
C2277      H2283   1.083       .  S
C2278      C2279   1.406       .  A
C2279      C2280   1.402       .  A
C2279      H2284   1.083       .  S
C2280      C2281   1.405       .  A
C2280      H2285   1.082       .  S
C2281      C2282   1.405       .  A
C2282      H2286   1.083       .  S
C2287      C2288   1.403       .  A
C2287      C2292   1.392       .  A
C2287      H2293   1.083       .  S
C2288      C2289   1.406       .  A
C2289      C2290   1.402       .  A
C2289      H2294   1.083       .  S
C2290      C2291   1.406       .  A
C2290      H2295   1.082       .  S
C2291      C2292   1.404       .  A
C2292      H2296   1.083       .  S
C2297      C2298   1.403   1_545  A
C2297      C2302   1.398       .  A
C2297      H2303   1.083       .  S
C2298      C2299   1.407       .  A
C2299      C2300   1.397   1_565  A
C2299      H2304   1.083       .  S
C2300      C2301   1.402       .  A
C2300      H2305   1.083       .  S
C2301      C2302   1.407       .  A
C2302      H2306   1.083       .  S
C2307      C2308   1.404       .  A
C2307      C2312   1.393       .  A
C2307      H2313   1.083       .  S
C2308      C2309   1.406       .  A
C2309      C2310   1.404       .  A
C2310      C2311   1.407       .  A
C2310      H2315   1.083       .  S
C2311      C2312   1.404       .  A
C2312      H2316   1.083       .  S
C2317      C2318   1.402       .  A
C2317      C2322   1.399       .  A
C2317      H2323   1.083       .  S
C2318      C2319   1.406       .  A
C2319      C2320   1.398       .  A
C2319      H2324   1.083       .  S
C2320      C2321   1.403       .  A
C2320      H2325   1.083       .  S
C2321      C2322   1.406       .  A
C2322      H2326   1.083       .  S
C2327      C2328   1.407       .  A
C2327      C2332   1.399       .  A
C2327      H2333   1.083       .  S
C2328      C2329   1.403       .  A
C2329      C2330   1.397       .  A
C2329      H2334   1.083       .  S
C2330      C2331   1.404       .  A
C2330      H2335   1.083       .  S
C2331      C2332   1.402       .  A
C2332      H2336   1.083       .  S
C2337      C2338   1.404       .  A
C2337      C2342   1.392       .  A
C2337      H2343   1.083       .  S
C2338      C2339   1.407       .  A
C2339      C2340   1.405       .  A
C2339      H2344   1.083       .  S
C2340      C2341   1.406       .  A
C2340      H2345   1.083       .  S
C2341      C2342   1.404       .  A
C2342      H2346   1.083       .  S
C2347      C2348   1.407       .  A
C2347      C2352   1.401       .  A
C2347      H2353   1.083       .  S
C2348      C2349   1.402       .  A
C2349      C2350   1.397       .  A
C2349      H2354   1.083       .  S
C2350      C2351   1.406       .  A
C2350      H2355   1.083       .  S
C2351      C2352   1.403       .  A
C2352      H2356   1.083       .  S
C2357      C2358   1.405       .  A
C2357      C2362   1.398       .  A
C2357      H2363   1.083       .  S
C2358      C2359   1.403       .  A
C2359      C2360   1.401       .  A
C2359      H2364   1.083       .  S
C2360      C2361   1.406       .  A
C2360      H2365   1.083       .  S
C2361      C2362   1.404       .  A
C2362      H2366   1.083       .  S
C2367      C2368   1.403       .  A
C2367      C2372   1.400   1_545  A
C2367      H2373   1.083       .  S
C2369      C2370   1.399       .  A
C2369      H2374   1.083       .  S
C2370      C2371   1.402   1_544  A
C2370      H2375   1.083       .  S
C2372      H2376   1.083       .  S
