geometry optimzed in LAMMPS
_audit_creation_date              2020-12-01 
_audit_creation_method            'lammps2cif' 
_symmetry_space_group_name_H-M    'P1' 
_symmetry_Int_Tables_number       1 
_symmetry_cell_setting            triclinic 
loop_ 
_symmetry_equiv_pos_as_xyz 
  x,y,z 
_cell_length_a                    48.00535267 
_cell_length_b                    47.584311004190916 
_cell_length_c                    24.088375566445258 
_cell_angle_alpha                 89.75815164773167 
_cell_angle_beta                  89.75910978203426 
_cell_angle_gamma                 89.72435284298471 
loop_ 
_atom_site_label 
_atom_site_type_symbol 
_atom_site_fract_x 
_atom_site_fract_y 
_atom_site_fract_z 
_atom_site_charge 
C1          C  0.10200030  0.11257706  0.21788064     0.30600
C2          C  0.13321474  0.14634880  0.28215916     0.30600
C3          C  0.13095084  0.12099559  0.19272430    -0.05600
C4          C  0.08863923  0.14095923  0.23327685    -0.06400
C5          C  0.11086485  0.09945749  0.27425150    -0.06200
C6          C  0.14680780  0.13871746  0.22554912    -0.05600
C7          C  0.10441413  0.15791883  0.26648465    -0.06400
C8          C  0.12733578  0.11659766  0.30632129    -0.06200
C9          C  0.17209357  0.14278748  0.19793684    -0.31600
N10         N  0.17205409  0.12825818  0.14920843     0.14900
C11         C  0.14765622  0.11389966  0.14728112    -0.31600
H12         H  0.14302211  0.09881536  0.11523124     0.16800
C13         C  0.08947712  0.18257175  0.27483227    -0.30600
N14         N  0.06498611  0.18127025  0.24651973     0.13600
C15         C  0.06440388  0.15575195  0.22081625    -0.30600
C16         C  0.13624885  0.10055886  0.35128414    -0.30900
N17         N  0.12357124  0.07518219  0.35081023     0.14100
H18         H  0.15104842  0.10668179  0.38267245     0.16700
C19         C  0.10869839  0.07386337  0.30265611    -0.30900
H20         H  0.09702899  0.05570130  0.28944065     0.16700
H21         H  0.04773780  0.14857140  0.19436043     0.16700
H22         H  0.18932374  0.15535600  0.21226300     0.16800
H23         H  0.09616529  0.20034299  0.29920738     0.16700
N24         N  0.49244087  0.21168481  0.24289948    -0.36000
N25         N  0.03588909  0.25478332  0.24349521    -0.56600
N26         N  0.49292213  0.29889346  0.24104894    -0.36000
N27         N  0.44970137  0.25575046  0.25143280    -0.56600
C28         C  0.01525798  0.19574849  0.25466225     0.27600
C29         C  0.46954360  0.19643341  0.25666076     0.27600
C30         C  0.01612994  0.31384866  0.25339574     0.27600
C31         C  0.47043313  0.31429451  0.25759261     0.27600
C32         C  0.05162826  0.23153648  0.23307752     0.36200
C33         C  0.05186630  0.27751078  0.23103221     0.36200
C34         C  0.43368502  0.23317923  0.23950192     0.36200
C35         C  0.43393076  0.27879714  0.24007498     0.36200
C36         C  0.00665346  0.17014290  0.27631758    -0.21300
C37         C  0.47791298  0.17054932  0.27740447    -0.21300
C38         C  0.00824033  0.33870543  0.27876041    -0.21300
C39         C  0.47949581  0.33915146  0.28096014    -0.21300
C40         C  0.07754937  0.23960535  0.21334265    -0.22300
C41         C  0.07768651  0.26856644  0.21196559    -0.22300
C42         C  0.40808067  0.24197283  0.22007377    -0.22300
C43         C  0.40810916  0.27079055  0.22051773    -0.22300
C44         C  0.04355866  0.20319627  0.24417149    -0.17700
C45         C  0.44131009  0.20469551  0.24817768    -0.17700
C46         C  0.44196078  0.30694288  0.24999481    -0.17700
C47         C  0.04418787  0.30612650  0.24077930    -0.17700
H48         H  0.01965651  0.15290497  0.29027509     0.15200
H49         H  0.46471746  0.15369801  0.29215672     0.15200
H50         H  0.02187367  0.35451393  0.29542156     0.15200
H51         H  0.46676479  0.35569133  0.29868155     0.15200
H52         H  0.09463080  0.22607839  0.20095736     0.13500
H53         H  0.09493276  0.28150081  0.19851498     0.13500
H54         H  0.39144973  0.22891981  0.20563513     0.13500
H55         H  0.39119516  0.28422840  0.20695475     0.13500
H56         H  0.49237904  0.23072385  0.22152395     0.26800
H57         H  0.49236001  0.28050745  0.21779934     0.26800
C58         C  0.35150619  0.36373005  0.28538439     0.30600
C59         C  0.38365790  0.39660057  0.21994068     0.30600
C60         C  0.33817877  0.37231861  0.22836974    -0.05600
C61         C  0.35889128  0.39292354  0.31034834    -0.06400
C62         C  0.38011709  0.35136971  0.26925892    -0.06200
C63         C  0.35477093  0.38926553  0.19555211    -0.05600
C64         C  0.37542713  0.40987453  0.27674050    -0.06400
C65         C  0.39629889  0.36811242  0.23576200    -0.06200
C66         C  0.33971211  0.39610817  0.14796586    -0.31600
N67         N  0.31469370  0.38300106  0.14929112     0.14900
C68         C  0.31313561  0.36926704  0.19911028    -0.31600
H69         H  0.29472704  0.35826151  0.21299973     0.16800
C70         C  0.37912909  0.43499167  0.30537169    -0.30600
N71         N  0.36632590  0.43353710  0.35602263     0.13600
C72         C  0.35334847  0.40808964  0.35862972    -0.30600
C73         C  0.42102214  0.35387748  0.22552100    -0.30900
N74         N  0.42043942  0.32868867  0.25246437     0.14100
H75         H  0.43807144  0.36122448  0.19983101     0.16700
C76         C  0.39541737  0.32708835  0.27956206    -0.30900
H77         H  0.38873884  0.30947851  0.30480670     0.16700
H78         H  0.34073525  0.40110747  0.39330796     0.16700
H79         H  0.34626923  0.40990559  0.11464075     0.16800
H80         H  0.39039655  0.45316795  0.29055441     0.16700
N81         N  0.12313719  0.00358512  0.41586803    -0.36000
N82         N  0.12755324  0.04926759  0.49866771    -0.56600
N83         N  0.12258936  0.00734786  0.58733595    -0.36000
N84         N  0.12348147  0.46163993  0.50399402    -0.56600
C85         C  0.12972810  0.02591002  0.38325111     0.27600
C86         C  0.12896136  0.47989505  0.38664005     0.27600
C87         C  0.13057256  0.03053039  0.61621417     0.27600
C88         C  0.12805880  0.48428307  0.61926995     0.27600
C89         C  0.12077016  0.06401034  0.45205126     0.36200
C90         C  0.12238817  0.06640428  0.54280654     0.36200
C91         C  0.11739544  0.44498389  0.45997138     0.36200
C92         C  0.11644728  0.44703606  0.55044439     0.36200
C93         C  0.14029242  0.01632980  0.33311921    -0.21300
C94         C  0.13989273  0.48735208  0.33530528    -0.21300
C95         C  0.14151237  0.02192229  0.66653812    -0.21300
C96         C  0.13980128  0.49296343  0.66874720    -0.21300
C97         C  0.11106919  0.09042654  0.46704491    -0.22300
C98         C  0.11224582  0.09193040  0.52409251    -0.22300
C99         C  0.10629163  0.41984519  0.47857467    -0.22300
C100        C  0.10555337  0.42119212  0.53566906    -0.22300
C101        C  0.12452549  0.05459929  0.39602897    -0.17700
C102        C  0.12263149  0.45187948  0.40331975    -0.17700
C103        C  0.12182569  0.45569869  0.60594016    -0.17700
C104        C  0.12688379  0.05930435  0.59974516    -0.17700
H105        H  0.14737229  0.02889848  0.29832842     0.15200
H106        H  0.14661617  0.47339555  0.30246588     0.15200
H107        H  0.15039320  0.03518841  0.69785714     0.15200
H108        H  0.14683202  0.47981222  0.70270596     0.15200
H109        H  0.10336933  0.10685268  0.43993594     0.13500
H110        H  0.10548438  0.10948047  0.54899758     0.13500
H111        H  0.09921073  0.40241289  0.45372590     0.13500
H112        H  0.09781372  0.40491529  0.56309132     0.13500
H113        H  0.11211527  0.00464147  0.45319965     0.26800
H114        H  0.11146551  0.00736389  0.55025169     0.26800
N115        N  0.37108433  0.00628269  0.41586483    -0.36000
N116        N  0.37026675  0.04995974  0.50213376    -0.56600
N117        N  0.37219693  0.00636140  0.58787141    -0.36000
N118        N  0.36745847  0.46271707  0.50155804    -0.56600
C119        C  0.36502076  0.02978541  0.38599346     0.27600
C120        C  0.36298816  0.48374098  0.38541246     0.27600
C121        C  0.36519410  0.02935334  0.61837273     0.27600
C122        C  0.36554748  0.48322920  0.61831143     0.27600
C123        C  0.37673803  0.06575184  0.45684548     0.36200
C124        C  0.37595218  0.06583437  0.54740091     0.36200
C125        C  0.37278406  0.44686520  0.45575653     0.36200
C126        C  0.37473270  0.44688878  0.54644746     0.36200
C127        C  0.35266509  0.02204883  0.33649648    -0.21300
C128        C  0.35142894  0.49310251  0.33607546    -0.21300
C129        C  0.35365947  0.02060811  0.66838327    -0.21300
C130        C  0.35397768  0.49161603  0.66841647    -0.21300
C131        C  0.38691247  0.09156189  0.47352889    -0.22300
C132        C  0.38638289  0.09162840  0.53070909    -0.22300
C133        C  0.38375080  0.42122532  0.47174309    -0.22300
C134        C  0.38491759  0.42112026  0.52886904    -0.22300
C135        C  0.37163020  0.05793663  0.40081091    -0.17700
C136        C  0.36720800  0.45496691  0.39974430    -0.17700
C137        C  0.37095075  0.45481587  0.60310709    -0.17700
C138        C  0.37021841  0.05792759  0.60335996    -0.17700
H139        H  0.34506456  0.03583147  0.30410168     0.15200
H140        H  0.34281948  0.48043910  0.30319170     0.15200
H141        H  0.34562865  0.03367142  0.70148703     0.15200
H142        H  0.34625055  0.47827475  0.70148762     0.15200
H143        H  0.39398389  0.10863988  0.44732886     0.13500
H144        H  0.39307144  0.10871801  0.55689075     0.13500
H145        H  0.39113769  0.40478652  0.44479688     0.13500
H146        H  0.39292548  0.40417113  0.55436999     0.13500
H147        H  0.38272607  0.00561603  0.45221253     0.26800
H148        H  0.38346316  0.00633201  0.55085148     0.26800
C149        C  0.10161669  0.39712234  0.78295304     0.30600
C150        C  0.13766398  0.36490376  0.72420190     0.30600
C151        C  0.12969528  0.39031482  0.81264410    -0.05600
C152        C  0.09062406  0.36809147  0.76529078    -0.06400
C153        C  0.11210320  0.41053250  0.72810488    -0.06200
C154        C  0.14758270  0.37361510  0.78215954    -0.05600
C155        C  0.10865321  0.35162251  0.73467760    -0.06400
C156        C  0.12982387  0.39376979  0.69671639    -0.06200
C157        C  0.17213200  0.37055892  0.81154534    -0.31600
N158        N  0.17033454  0.38532727  0.85951444     0.14900
C159        C  0.14458498  0.39793480  0.86010646    -0.31600
H160        H  0.13743608  0.41202354  0.89234766     0.16800
C161        C  0.09410540  0.32716398  0.72162602    -0.30600
N162        N  0.06797869  0.32825897  0.74463129     0.13600
C163        C  0.06594587  0.35332505  0.77157540    -0.30600
C164        C  0.13468880  0.40868101  0.64757510    -0.30900
N165        N  0.12205542  0.43438371  0.64992722     0.14100
H166        H  0.14591116  0.40126390  0.61147474     0.16700
C167        C  0.10860889  0.43581777  0.69964247    -0.30900
H168        H  0.09648609  0.45372693  0.71341069     0.16700
H169        H  0.04777315  0.36040770  0.79439357     0.16700
H170        H  0.19017132  0.35848619  0.79860753     0.16800
H171        H  0.10199850  0.30985987  0.69705924     0.16700
N172        N  0.03765861  0.25526037  0.73899219    -0.36000
N173        N  0.49538481  0.29911945  0.74566281    -0.56600
N174        N  0.45140396  0.25582441  0.74252193    -0.36000
N175        N  0.49370962  0.21160610  0.74697320    -0.56600
C176        C  0.05306575  0.27807990  0.75318784     0.27600
C177        C  0.05215407  0.23196083  0.75467557     0.27600
C178        C  0.43673607  0.27916681  0.75736260     0.27600
C179        C  0.43575027  0.23299682  0.75617896     0.27600
C180        C  0.01804612  0.31485849  0.73231343     0.36200
C181        C  0.47258131  0.31519902  0.73488219     0.36200
C182        C  0.01644008  0.19568912  0.73398750     0.36200
C183        C  0.47078164  0.19600207  0.73509907     0.36200
C184        C  0.07720504  0.26913523  0.77895497    -0.21300
C185        C  0.07669133  0.24017245  0.77998174    -0.21300
C186        C  0.41169510  0.27098904  0.78117621    -0.21300
C187        C  0.41117684  0.24197350  0.78062853    -0.21300
C188        C  0.00951867  0.34077940  0.71214785    -0.22300
C189        C  0.48081754  0.34088104  0.71370727    -0.22300
C190        C  0.00781470  0.17005072  0.71326773    -0.22300
C191        C  0.47904980  0.17030033  0.71403358    -0.22300
C192        C  0.04620798  0.30672141  0.74208285    -0.17700
C193        C  0.04475172  0.20353355  0.74343887    -0.17700
C194        C  0.44254304  0.20434877  0.74494888    -0.17700
C195        C  0.44453588  0.30764748  0.74704783    -0.17700
H196        H  0.09318709  0.28216998  0.79643958     0.15200
H197        H  0.09254031  0.22673347  0.79794233     0.15200
H198        H  0.39549493  0.28451218  0.79764242     0.15200
H199        H  0.39482294  0.22888970  0.79736097     0.15200
H200        H  0.02254275  0.35779363  0.69755677     0.13500
H201        H  0.46742792  0.35767329  0.69994038     0.13500
H202        H  0.02081770  0.15303160  0.69835966     0.13500
H203        H  0.46569828  0.15376266  0.69943708     0.13500
H204        H  0.01965924  0.25543688  0.71496641     0.26800
H205        H  0.46973661  0.25559841  0.71927282     0.26800
C206        C  0.34966950  0.14867175  0.71559864     0.30600
C207        C  0.38167015  0.11595192  0.78198308     0.30600
C208        C  0.35784350  0.11945542  0.69194450    -0.05600
C209        C  0.37907709  0.16120161  0.72966744    -0.06400
C210        C  0.33724640  0.14214518  0.77331186    -0.06200
C211        C  0.37366206  0.10282663  0.72629667    -0.05600
C212        C  0.39521988  0.14437022  0.76479444    -0.06400
C213        C  0.35377950  0.12605252  0.80750854    -0.06200
C214        C  0.38013600  0.07837289  0.69768241    -0.31600
N215        N  0.36866587  0.07961787  0.64612044     0.14900
C216        C  0.35532486  0.10489573  0.64212064    -0.31600
H217        H  0.34474619  0.11225434  0.60521537     0.16800
C218        C  0.42002379  0.15861217  0.77448545    -0.30600
N219        N  0.42022828  0.18321462  0.74515686     0.13600
C220        C  0.39542986  0.18473793  0.71728759    -0.30600
C221        C  0.34058694  0.12507038  0.85890161    -0.30900
N222        N  0.31566770  0.13849455  0.85605050     0.14100
H223        H  0.34838084  0.11525355  0.89630470     0.16700
C224        C  0.31359910  0.14948242  0.80373210    -0.30900
H225        H  0.29619333  0.16187884  0.78880114     0.16700
H226        H  0.38981961  0.20174850  0.68954020     0.16700
H227        H  0.39285079  0.06117646  0.71291227     0.16800
H228        H  0.43673200  0.15158956  0.80125490     0.16700
N229        N  0.24274359  0.38239218  0.08941343    -0.36000
N230        N  0.19954059  0.38620140  0.00419964    -0.56600
N231        N  0.24327175  0.38240004  0.91724648    -0.36000
N232        N  0.28649704  0.38379446  0.00283507    -0.56600
C233        C  0.21988985  0.38915184  0.12014083     0.27600
C234        C  0.26551907  0.38926665  0.11965122     0.27600
C235        C  0.22042251  0.38974421  0.88688923     0.27600
C236        C  0.26643842  0.38736914  0.88566049     0.27600
C237        C  0.18372847  0.37966848  0.04938876     0.36200
C238        C  0.18366445  0.38105816  0.95883627     0.36200
C239        C  0.30195798  0.37805032  0.04890055     0.36200
C240        C  0.30238662  0.37698381  0.95774214     0.36200
C241        C  0.22824104  0.40079810  0.16992713    -0.21300
C242        C  0.25697189  0.40094734  0.16955795    -0.21300
C243        C  0.22928396  0.39975326  0.83565059    -0.21300
C244        C  0.25807209  0.39826532  0.83489604    -0.21300
C245        C  0.15790812  0.37015656  0.03249656    -0.22300
C246        C  0.15783051  0.37111236  0.97543227    -0.22300
C247        C  0.32762285  0.36734743  0.03282075    -0.22300
C248        C  0.32785074  0.36656645  0.97556743    -0.22300
C249        C  0.19176929  0.38363393  0.10568702    -0.17700
C250        C  0.29372492  0.38343951  0.10518249    -0.17700
C251        C  0.29481506  0.38142822  0.90078100    -0.17700
C252        C  0.19177956  0.38591704  0.90265039    -0.17700
H253        H  0.21501881  0.40843159  0.20314513     0.15200
H254        H  0.27006695  0.40867592  0.20254621     0.15200
H255        H  0.21636802  0.40741970  0.80207806     0.15200
H256        H  0.27128598  0.40478394  0.80082134     0.15200
H257        H  0.14091434  0.36290707  0.05838705     0.13500
H258        H  0.14078289  0.36458983  0.94933429     0.13500
H259        H  0.34442210  0.36046153  0.05947775     0.13500
H260        H  0.34485761  0.35890129  0.95012664     0.13500
H261        H  0.24279354  0.37085472  0.05280123     0.26800
H262        H  0.24291002  0.37192898  0.95520838     0.26800
N263        N  0.24429261  0.13123774  0.08806160    -0.36000
N264        N  0.28725024  0.13310592  0.00078348    -0.56600
N265        N  0.24371222  0.13584946  0.91679786    -0.36000
N266        N  0.20076133  0.12893919  0.00333145    -0.56600
C267        C  0.26752127  0.12443539  0.11746949     0.27600
C268        C  0.22173376  0.12412860  0.11940543     0.27600
C269        C  0.26674537  0.13072908  0.88550672     0.27600
C270        C  0.22137849  0.12741127  0.88699658     0.27600
C271        C  0.30311729  0.13767494  0.04637884     0.36200
C272        C  0.30234546  0.14180956  0.95611176     0.36200
C273        C  0.18487917  0.13382673  0.04922711     0.36200
C274        C  0.18469363  0.13501213  0.95839945     0.36200
C275        C  0.25948421  0.11262117  0.16777371    -0.21300
C276        C  0.23071813  0.11258628  0.16909533    -0.21300
C277        C  0.25896015  0.11839351  0.83594934    -0.21300
C278        C  0.23037489  0.11630808  0.83690723    -0.21300
C279        C  0.32824832  0.14951494  0.03059969    -0.22300
C280        C  0.32769507  0.15228120  0.97364677    -0.22300
C281        C  0.15869332  0.14309926  0.03315059    -0.22300
C282        C  0.15858725  0.14386099  0.97593737    -0.22300
C283        C  0.29567866  0.13032519  0.10183427    -0.17700
C284        C  0.19328389  0.12891412  0.10534931    -0.17700
C285        C  0.19303672  0.13159690  0.90185127    -0.17700
C286        C  0.29443627  0.13805970  0.89963526    -0.17700
H287        H  0.27291421  0.10487556  0.20044692     0.15200
H288        H  0.21789254  0.10479547  0.20279845     0.15200
H289        H  0.27239617  0.11138404  0.80255758     0.15200
H290        H  0.21766269  0.10760818  0.80426752     0.15200
H291        H  0.34515407  0.15580846  0.05730760     0.13500
H292        H  0.34417688  0.16093511  0.94811876     0.13500
H293        H  0.14147435  0.14911148  0.05973909     0.13500
H294        H  0.14130160  0.15059052  0.95039020     0.13500
H295        H  0.24379555  0.14277771  0.05130996     0.26800
H296        H  0.24303614  0.14734562  0.95348832     0.26800
C297        C  0.38616398  0.39771195  0.78429759     0.29000
C298        C  0.35299525  0.36554264  0.72044135     0.30600
C299        C  0.35718585  0.39004659  0.81076686    -0.05600
C300        C  0.37845904  0.41031115  0.72722099    -0.06400
C301        C  0.39828019  0.36831683  0.77009262    -0.06200
C302        C  0.34034558  0.37379188  0.77739566    -0.05600
C303        C  0.36210722  0.39370309  0.69442712    -0.06400
C304        C  0.38183704  0.35201909  0.73573411    -0.06200
C305        C  0.31566149  0.36867537  0.80655791    -0.31600
N306        N  0.31673290  0.38115520  0.85749890     0.14900
C307        C  0.34227477  0.39365512  0.86055781    -0.31600
H308        H  0.34950760  0.40415982  0.89739629     0.16800
C309        C  0.35835785  0.40788583  0.64445143    -0.30600
N310        N  0.37140516  0.43318085  0.64644899     0.13600
C311        C  0.38389225  0.43474857  0.69717089    -0.30600
C312        C  0.39841940  0.32886244  0.72114000    -0.30900
N313        N  0.42295863  0.32947118  0.74905034     0.14100
H314        H  0.39419411  0.31309121  0.69030017     0.16700
C315        C  0.42310915  0.35365303  0.77907170    -0.30900
H316        H  0.44025582  0.36035848  0.80475875     0.16700
H317        H  0.39613291  0.45235726  0.71126036     0.16700
H318        H  0.29828082  0.35645663  0.79170096     0.16800
H319        H  0.34650431  0.40053010  0.60933723     0.16700
C320        C  0.35197549  0.14635337  0.28016324     0.30600
C321        C  0.38539026  0.11290457  0.21766065     0.30600
C322        C  0.34005467  0.13735765  0.22380717    -0.05600
C323        C  0.38065905  0.15905884  0.26525185    -0.06400
C324        C  0.36068133  0.11819801  0.30796902    -0.06200
C325        C  0.35698747  0.12071915  0.19126678    -0.05600
C326        C  0.39750945  0.14251130  0.23137077    -0.06400
C327        C  0.37757309  0.10124575  0.27558740    -0.06200
C328        C  0.34261349  0.11637238  0.14182517    -0.31600
N329        N  0.31728723  0.12959939  0.14441662     0.14900
C330        C  0.31576241  0.14252061  0.19457321    -0.31600
H331        H  0.29831561  0.15516619  0.20857503     0.16800
C332        C  0.42069694  0.15893327  0.21871184    -0.30600
N333        N  0.41969750  0.18324304  0.24801201     0.13600
C334        C  0.39516036  0.18354867  0.27658057    -0.30600
C335        C  0.38410653  0.07753657  0.30670286    -0.30900
N336        N  0.37170690  0.07948155  0.35748619     0.14100
H337        H  0.39695772  0.06007410  0.29327112     0.16700
C338        C  0.35800003  0.10458128  0.35907607    -0.30900
H339        H  0.34720396  0.11229079  0.39545180     0.16700
H340        H  0.38826718  0.20042896  0.30337085     0.16700
H341        H  0.35003000  0.10437913  0.10662509     0.16800
H342        H  0.43693595  0.15458363  0.18879512     0.16700
C343        C  0.13858447  0.15128575  0.71875577     0.30600
C344        C  0.10718751  0.11541931  0.77967701     0.30600
C345        C  0.15068705  0.14274993  0.77653146    -0.05600
C346        C  0.10882768  0.16162737  0.73266949    -0.06400
C347        C  0.13332271  0.12188469  0.69109170    -0.06200
C348        C  0.13410010  0.12507869  0.80732905    -0.05600
C349        C  0.09240003  0.14337954  0.76296998    -0.06400
C350        C  0.11679691  0.10394264  0.72262662    -0.06200
C351        C  0.14738044  0.11933746  0.85716722    -0.31600
N352        N  0.17230592  0.13261354  0.85765789     0.14900
C353        C  0.17483184  0.14626931  0.80798026    -0.31600
H354        H  0.19348059  0.15727068  0.79540603     0.16800
C355        C  0.06625486  0.15630637  0.76766640    -0.30600
N356        N  0.06686093  0.18216300  0.74299561     0.13600
C357        C  0.09287419  0.18529059  0.72099749    -0.30600
C358        C  0.11241970  0.07976381  0.69184127    -0.30900
N359        N  0.12644254  0.08142394  0.64261185     0.14100
H360        H  0.09962972  0.06216492  0.70441444     0.16700
C361        C  0.13931356  0.10719545  0.64187852    -0.30900
H362        H  0.15205084  0.11485018  0.60795501     0.16700
H363        H  0.09980835  0.20359401  0.69807412     0.16700
H364        H  0.13974651  0.10581112  0.89005286     0.16800
H365        H  0.04797339  0.14768680  0.78763915     0.16700
C366        C  0.13345916  0.36165420  0.28240783     0.30600
C367        C  0.10237752  0.39841356  0.22327680     0.30600
C368        C  0.14714875  0.37211811  0.22783261    -0.05600
C369        C  0.10480968  0.35076670  0.26403833    -0.06400
C370        C  0.12642746  0.38987527  0.31236089    -0.06200
C371        C  0.13081173  0.39014612  0.19687871    -0.05600
C372        C  0.08870479  0.36910610  0.23289027    -0.06400
C373        C  0.11012180  0.40813536  0.28180622    -0.06200
C374        C  0.14539624  0.39601494  0.14822487    -0.31600
N375        N  0.17060256  0.38290399  0.14946058     0.14900
C376        C  0.17207193  0.36869060  0.19865191    -0.31600
H377        H  0.18986646  0.35634567  0.21176811     0.16800
C378        C  0.06488677  0.35398020  0.21843965    -0.30600
N379        N  0.06582034  0.32775960  0.24210419     0.13600
C380        C  0.09032883  0.32584515  0.27000929    -0.30600
C381        C  0.10643108  0.43244113  0.31234369    -0.30900
N382        N  0.12065223  0.43010529  0.36087243     0.14100
H383        H  0.09473772  0.45083175  0.29945537     0.16700
C384        C  0.13336832  0.40435891  0.36082049    -0.30900
H385        H  0.14744585  0.39723479  0.39293289     0.16700
H386        H  0.09715828  0.30763699  0.29344277     0.16700
H387        H  0.13821914  0.40888263  0.11398848     0.16800
H388        H  0.04810805  0.36133904  0.19225574     0.16700
O389        O  0.02186380  0.01992081  0.11002152    -0.79500
O390        O  0.46822231  0.04911300  0.92903620    -0.79500
O391        O  0.05466073  0.01657324  0.93715288    -0.79600
O392        O  0.44814485  0.03370059  0.04154264    -0.79500
O393        O  0.02209968  0.04755202  0.92497575    -0.79600
O394        O  0.46725144  0.01675621  0.11476973    -0.79500
O395        O  0.43475600  0.01962285  0.94568041    -0.79500
O396        O  0.04340647  0.03291235  0.03576961    -0.79600
C397        C  0.03863767  0.03605165  0.08608637     1.10200
C398        C  0.44322695  0.04245749  0.92454113     1.10000
C399        C  0.04698229  0.04055782  0.92038229     1.10200
C400        C  0.45141007  0.03425105  0.09237390     1.10100
O401        O  0.46764795  0.46310884  0.05928683    -0.79500
O402        O  0.02098376  0.49010891  0.88159605    -0.79600
O403        O  0.06591651  0.48139863  0.02620089    -0.79500
O404        O  0.46405449  0.46608695  0.95583329    -0.79500
O405        O  0.46567385  0.49321074  0.88304791    -0.79600
O406        O  0.02568441  0.46603438  0.05659492    -0.79500
O407        O  0.42668960  0.48132087  0.03502575    -0.79500
O408        O  0.02348673  0.46480891  0.95646826    -0.79600
Co409      Co  0.49555760  0.99318028  0.07688935     1.51500
Co410      Co  0.49442654  0.01992315  0.90957493     1.51700
Co411      Co  0.03276823  0.99862998  0.99859271     1.51600
Co412      Co  0.45767152  0.99939794  0.00261837     1.51500
O413        O  0.49499255  0.01241128  0.99309937    -1.41500
C414        C  0.44103200  0.46400069  0.06331550     1.10100
C415        C  0.02657363  0.46690008  0.90530852     1.10200
C416        C  0.05186692  0.46896703  0.06367770     1.10100
C417        C  0.45894543  0.47031222  0.90558292     1.10100
O418        O  0.26634085  0.21238653  0.44065377    -0.79500
O419        O  0.26173255  0.31844099  0.54918239    -0.79500
O420        O  0.28207180  0.27282920  0.42956348    -0.79600
O421        O  0.28504191  0.22821022  0.54679478    -0.79500
O422        O  0.25703750  0.31166909  0.43955793    -0.79600
O423        O  0.25265604  0.19777287  0.54729807    -0.79500
O424        O  0.29050048  0.28290721  0.55276721    -0.79500
O425        O  0.25761450  0.23504070  0.36167275    -0.79600
C426        C  0.27012810  0.21573464  0.38803556     1.10200
C427        C  0.28549576  0.30832741  0.56124898     1.10000
C428        C  0.27885464  0.29884013  0.42277635     1.10200
C429        C  0.27681343  0.20462098  0.56163256     1.10100
O430        O  0.20285138  0.22972030  0.54317060    -0.79500
O431        O  0.20117058  0.28695011  0.45947058    -0.79600
O432        O  0.21072052  0.23083936  0.42120189    -0.79500
O433        O  0.24181586  0.28724346  0.62396870    -0.79500
O434        O  0.20748650  0.29352210  0.56542909    -0.79600
O435        O  0.21616344  0.19029958  0.46502830    -0.79500
O436        O  0.23254493  0.23204629  0.61309690    -0.79500
O437        O  0.22646070  0.28055373  0.38705028    -0.79600
Co438      Co  0.23333658  0.22284416  0.49219748     1.51500
Co439      Co  0.23160426  0.30112410  0.50306885     1.51700
Co440      Co  0.24793957  0.25146915  0.42975454     1.51600
Co441      Co  0.26272050  0.25737401  0.58129671     1.51500
O442        O  0.24437365  0.26186023  0.50879791    -1.41500
C443        C  0.20815364  0.22690802  0.59418503     1.10100
C444        C  0.20403094  0.28923170  0.40847338     1.10200
C445        C  0.20397600  0.20510571  0.42875192     1.10100
C446        C  0.21759706  0.29632068  0.61276296     1.10100
C447        C  0.08755910  0.42132771  0.19215009     0.00500
C448        C  0.10363198  0.44289733  0.16799805    -0.11400
C449        C  0.09256647  0.45962679  0.12624450     0.02700
C450        C  0.06449136  0.45589507  0.11199443     0.00400
C451        C  0.04717380  0.43980622  0.14681975    -0.11400
C452        C  0.05850389  0.42338308  0.18854670     0.02600
H453        H  0.12532611  0.44546104  0.17912807     0.15600
H454        H  0.02473135  0.43994705  0.14171998     0.15600
C455        C  0.04006420  0.41312767  0.23127907     0.37200
C456        C  0.11038538  0.47992583  0.09913812     0.37100
N457        N  0.02459910  0.40626624  0.26562733    -0.43100
N458        N  0.12468678  0.99623817  0.07767484    -0.43100
C459        C  0.14912299  0.33955353  0.31426352     0.00500
C460        C  0.14656961  0.33926895  0.37201337    -0.11400
C461        C  0.16348210  0.32222022  0.40391147     0.02700
C462        C  0.18258327  0.30389284  0.37717198     0.00400
C463        C  0.18123824  0.30024107  0.31976641    -0.11400
C464        C  0.16342526  0.31698656  0.28829465     0.02600
H465        H  0.13136412  0.35240893  0.39275273     0.15600
H466        H  0.19391932  0.28428034  0.29969177     0.15600
C467        C  0.15918855  0.30941690  0.23094668     0.37200
C468        C  0.16128408  0.32532312  0.46355674     0.37100
N469        N  0.15586566  0.30314815  0.18508135    -0.43100
N470        N  0.15938282  0.32794365  0.51117885    -0.43100
C471        C  0.18700564  0.21314218  0.62903960     0.00500
C472        C  0.16454002  0.19985496  0.60271035    -0.11400
C473        C  0.14815002  0.18039410  0.63114158     0.02700
C474        C  0.15441921  0.17371665  0.68680587     0.00400
C475        C  0.17231509  0.19208338  0.71525819    -0.11400
C476        C  0.18970183  0.21050766  0.68683288     0.02600
H477        H  0.16026512  0.20384480  0.55923136     0.15600
H478        H  0.17230157  0.19307776  0.75988107     0.15600
C479        C  0.20978247  0.22634181  0.71825278     0.37200
C480        C  0.12389276  0.16948707  0.60351148     0.37100
N481        N  0.22587728  0.23891216  0.74362001    -0.43100
N482        N  0.10407693  0.16148949  0.58157825    -0.43100
C483        C  0.06524432  0.05999861  0.89221930     0.00500
C484        C  0.08794952  0.04971610  0.86231574    -0.11400
C485        C  0.10258664  0.06757649  0.82717949     0.02700
C486        C  0.09246500  0.09530116  0.81765421     0.00400
C487        C  0.07287402  0.10626556  0.85498302    -0.11400
C488        C  0.05892437  0.08896919  0.89155556     0.02600
H489        H  0.09435439  0.02792194  0.86669866     0.15600
H490        H  0.06945684  0.12859207  0.85849744     0.15600
C491        C  0.03905489  0.10182368  0.92919952     0.37200
C492        C  0.12971659  0.05815177  0.80888496     0.37100
N493        N  0.02323641  0.11225393  0.95918985    -0.43100
N494        N  0.15195751  0.05070981  0.79728943    -0.43100
C495        C  0.40282726  0.09182718  0.18573518     0.00500
C496        C  0.43161047  0.09589855  0.17911525    -0.11400
C497        C  0.44752722  0.07816847  0.14624231     0.02700
C498        C  0.43546600  0.05379733  0.12531661     0.00400
C499        C  0.40765572  0.04750337  0.13669247    -0.11400
C500        C  0.39124383  0.06614396  0.16710309     0.02600
H501        H  0.44249592  0.11177553  0.20149231     0.15600
H502        H  0.39883350  0.02796413  0.12189653     0.15600
C503        C  0.36323789  0.05751456  0.18111823     0.37200
C504        C  0.47559225  0.08637045  0.13221564     0.37100
N505        N  0.34085881  0.05059560  0.19263870    -0.43100
N506        N  0.49761429  0.09400010  0.11994908    -0.43100
C507        C  0.33152831  0.16525330  0.30960926     0.00500
C508        C  0.31266967  0.15324809  0.34741194    -0.11400
C509        C  0.29248670  0.16936379  0.37342310     0.02700
C510        C  0.29011541  0.19797027  0.35986970     0.00400
C511        C  0.30645411  0.20950229  0.31759611    -0.11400
C512        C  0.32619313  0.19303046  0.29058333     0.02600
H513        H  0.31181006  0.13085105  0.35359939     0.15600
H514        H  0.30309381  0.23107596  0.30430641     0.15600
C515        C  0.33663452  0.20347396  0.23819528     0.37200
C516        C  0.27309109  0.15541307  0.41022918     0.37100
N517        N  0.34354508  0.21132734  0.19479342    -0.43100
N518        N  0.25753685  0.14394551  0.43917194    -0.43100
C519        C  0.33302246  0.34984227  0.68403356     0.00500
C520        C  0.33840468  0.32191206  0.67076730    -0.11400
C521        C  0.32651727  0.30976048  0.62475336     0.02700
C522        C  0.30433751  0.32376834  0.59750431     0.00400
C523        C  0.29607106  0.35048203  0.61581674    -0.11400
C524        C  0.30984405  0.36343144  0.65935801     0.02600
H525        H  0.35134315  0.30903407  0.69679262     0.15600
H526        H  0.27842752  0.36106546  0.59715334     0.15600
C527        C  0.29956512  0.39043925  0.67798257     0.37200
C528        C  0.33811531  0.28312010  0.60706747     0.37100
N529        N  0.29154188  0.41217125  0.69258418    -0.43100
N530        N  0.34802122  0.26212537  0.59277995    -0.43100
C531        C  0.40572806  0.41681777  0.81480947     0.00500
C532        C  0.39492179  0.43457477  0.85543033    -0.11400
C533        C  0.41211539  0.45141119  0.88658264     0.02700
C534        C  0.44094543  0.45140337  0.87595850     0.00400
C535        C  0.45150080  0.43705260  0.83008581    -0.11400
C536        C  0.43380980  0.42079449  0.79778449     0.02600
H537        H  0.37279060  0.43729211  0.86026938     0.15600
H538        H  0.47311392  0.43975250  0.81793170     0.15600
C539        C  0.44374312  0.41256342  0.74361116     0.37200
C540        C  0.39865312  0.46943771  0.92642560     0.37100
N541        N  0.45132798  0.40739405  0.69915900    -0.43100
N542        N  0.38593670  0.48306039  0.95710637    -0.43100
C543        C  0.39781501  0.09527203  0.81654901     0.00500
C544        C  0.38341104  0.07797534  0.85461793    -0.11400
C545        C  0.39763033  0.06168672  0.89285057     0.02700
C546        C  0.42646272  0.05909188  0.88716181     0.00400
C547        C  0.44020361  0.07151172  0.84170225    -0.11400
C548        C  0.42596627  0.08905536  0.80558795     0.02600
H549        H  0.36098401  0.07668258  0.85462812     0.15600
H550        H  0.46206985  0.06711561  0.83376099     0.15600
C551        C  0.43969084  0.09710801  0.75456753     0.37200
C552        C  0.38237428  0.04978697  0.93900670     0.37100
N553        N  0.45051765  0.10248765  0.71289695    -0.43100
N554        N  0.36987849  0.04108310  0.97644083    -0.43100
C555        C  0.32881944  0.16422599  0.67999712     0.00500
C556        C  0.30803172  0.14846274  0.65290614    -0.11400
C557        C  0.29034636  0.16088146  0.61426188     0.02700
C558        C  0.29248383  0.18982641  0.60462622     0.00400
C559        C  0.30898767  0.20616759  0.64008821    -0.11400
C560        C  0.32616964  0.19363071  0.67937764     0.02600
H561        H  0.30573130  0.12621623  0.66128120     0.15600
H562        H  0.30762931  0.22890846  0.63859924     0.15600
C563        C  0.33699147  0.21107921  0.72292872     0.37200
C564        C  0.27062234  0.14349568  0.58535251     0.37100
N565        N  0.34462055  0.22538529  0.75840220    -0.43100
N566        N  0.25470521  0.12941403  0.56281919    -0.43100
C567        C  0.04065111  0.44421003  0.87531088     0.00500
C568        C  0.03893923  0.44371069  0.81746044    -0.11400
C569        C  0.05682173  0.42657626  0.78695185     0.02700
C570        C  0.07947488  0.41314557  0.81409977     0.00400
C571        C  0.07798441  0.40996724  0.87176660    -0.11400
C572        C  0.05834828  0.42470562  0.90256816     0.02600
H573        H  0.02348268  0.45646076  0.79620973     0.15600
H574        H  0.09154889  0.39523588  0.89295767     0.15600
C575        C  0.05685553  0.41844822  0.96120743     0.37200
C576        C  0.05006680  0.42165803  0.72942522     0.37100
N577        N  0.05592690  0.41206972  0.00757977    -0.43100
N578        N  0.04449585  0.41749659  0.68349367    -0.43100
C579        C  0.15965319  0.34652459  0.69767800     0.00500
C580        C  0.17899029  0.35889234  0.66157016    -0.11400
C581        C  0.19929593  0.34301497  0.63563709     0.02700
C582        C  0.20236094  0.31450589  0.64979681     0.00400
C583        C  0.18604959  0.30276796  0.69173854    -0.11400
C584        C  0.16526880  0.31882376  0.71713807     0.02600
H585        H  0.17941937  0.38120444  0.65474993     0.15600
H586        H  0.18899675  0.28098485  0.70353878     0.15600
C587        C  0.15243375  0.30741645  0.76652605     0.37200
C588        C  0.21543715  0.35644853  0.59235485     0.37100
N589        N  0.14312747  0.29857751  0.80734276    -0.43100
N590        N  0.22743363  0.36797190  0.55733392    -0.43100
C591        C  0.33510475  0.34397828  0.32190693     0.00500
C592        C  0.31563818  0.32602772  0.29753734    -0.11400
C593        C  0.29675451  0.31138559  0.32999267     0.02700
C594        C  0.29860878  0.31326566  0.38800981     0.00400
C595        C  0.32118702  0.32660211  0.41251952    -0.11400
C596        C  0.34035302  0.34083742  0.37937117     0.02600
H597        H  0.31542837  0.32276477  0.25324244     0.15600
H598        H  0.32424873  0.32513579  0.45705532     0.15600
C599        C  0.36652422  0.34851356  0.40399577     0.37200
C600        C  0.27581172  0.29481720  0.30247219     0.37100
N601        N  0.38780947  0.35337161  0.42400381    -0.43100
N602        N  0.25928837  0.28180933  0.27914325    -0.43100
C603        C  0.42821124  0.44504519  0.10157841     0.00500
C604        C  0.43505490  0.44816351  0.15763283    -0.11400
C605        C  0.42314140  0.43066624  0.19718672     0.02700
C606        C  0.40225051  0.41199013  0.18030297     0.00400
C607        C  0.40087629  0.40483336  0.12374098    -0.11400
C608        C  0.41278149  0.42197202  0.08389770     0.02600
H609        H  0.45018473  0.46376494  0.17016480     0.15600
H610        H  0.38975654  0.38629858  0.11042443     0.15600
C611        C  0.40970810  0.41465456  0.02619014     0.37200
C612        C  0.43569684  0.42921682  0.25144230     0.37100
N613        N  0.40699515  0.40775070  0.98056108    -0.43100
N614        N  0.44622321  0.42771289  0.29449744    -0.43100
C615        C  0.14803528  0.16589904  0.32065174     0.00500
C616        C  0.14523114  0.16151971  0.37805835    -0.11400
C617        C  0.16418156  0.17289353  0.41424463     0.02700
C618        C  0.18234205  0.19356474  0.39436213     0.00400
C619        C  0.17995484  0.20348104  0.33948047    -0.11400
C620        C  0.16263769  0.18980025  0.30224892     0.02600
H621        H  0.12920073  0.14802917  0.39480991     0.15600
H622        H  0.19249107  0.22097970  0.32500413     0.15600
C623        C  0.15912530  0.20150701  0.24729592     0.37200
C624        C  0.16562691  0.16138680  0.46968921     0.37100
N625        N  0.15608364  0.21108626  0.20347826    -0.43100
N626        N  0.16725720  0.15105297  0.51309853    -0.43100
C627        C  0.08277100  0.09528096  0.18305814     0.00500
C628        C  0.08660661  0.09484745  0.12564155    -0.11400
C629        C  0.07377737  0.07484244  0.09350974     0.02700
C630        C  0.05296343  0.05777166  0.11750276     0.00400
C631        C  0.04532516  0.06193339  0.17322539    -0.11400
C632        C  0.05960537  0.08106076  0.20582504     0.02600
H633        H  0.09977679  0.11000757  0.10519029     0.15600
H634        H  0.02814320  0.05033762  0.19145080     0.15600
C635        C  0.04908177  0.08666890  0.26097037     0.37200
C636        C  0.08491286  0.07114722  0.03836154     0.37100
N637        N  0.04042517  0.09124447  0.30494122    -0.43100
N638        N  0.09565474  0.06853200  0.99566207    -0.43100
C639        C  0.10200032  0.61257708  0.21788064     0.30600
C640        C  0.13321477  0.64634881  0.28215918     0.30600
C641        C  0.13095088  0.62099558  0.19272435    -0.05600
C642        C  0.08863927  0.64095926  0.23327682    -0.06400
C643        C  0.11086483  0.59945751  0.27425151    -0.06200
C644        C  0.14680786  0.63871743  0.22554917    -0.05600
C645        C  0.10441416  0.65791885  0.26648462    -0.06400
C646        C  0.12733576  0.61659768  0.30632132    -0.06200
C647        C  0.17209361  0.64278745  0.19793683    -0.31600
N648        N  0.17205410  0.62825818  0.14920839     0.14900
C649        C  0.14765623  0.61389968  0.14728112    -0.31600
H650        H  0.14302209  0.59881541  0.11523120     0.16800
C651        C  0.08947713  0.68257175  0.27483231    -0.30600
N652        N  0.06498613  0.68127026  0.24651976     0.13600
C653        C  0.06440391  0.65575197  0.22081626    -0.30600
C654        C  0.13624881  0.60055886  0.35128416    -0.30900
N655        N  0.12357120  0.57518219  0.35081023     0.14100
H656        H  0.15104838  0.60668178  0.38267248     0.16700
C657        C  0.10869835  0.57386338  0.30265610    -0.30900
H658        H  0.09702895  0.55570131  0.28944061     0.16700
H659        H  0.04773782  0.64857142  0.19436048     0.16700
H660        H  0.18932380  0.65535597  0.21226290     0.16800
H661        H  0.09616530  0.70034298  0.29920747     0.16700
N662        N  0.49244086  0.71168481  0.24289948    -0.36000
N663        N  0.03588914  0.75478330  0.24349522    -0.56600
N664        N  0.49292216  0.79889348  0.24104897    -0.36000
N665        N  0.44970137  0.75575045  0.25143281    -0.56600
C666        C  0.01525798  0.69574849  0.25466224     0.27600
C667        C  0.46954358  0.69643339  0.25666076     0.27600
C668        C  0.01612994  0.81384864  0.25339580     0.27600
C669        C  0.47043317  0.81429452  0.25759270     0.27600
C670        C  0.05162830  0.73153647  0.23307750     0.36200
C671        C  0.05186633  0.77751077  0.23103227     0.36200
C672        C  0.43368501  0.73317925  0.23950194     0.36200
C673        C  0.43393078  0.77879714  0.24007496     0.36200
C674        C  0.00665344  0.67014289  0.27631758    -0.21300
C675        C  0.47791297  0.67054930  0.27740448    -0.21300
C676        C  0.00824029  0.83870544  0.27876035    -0.21300
C677        C  0.47949588  0.83915144  0.28096033    -0.21300
C678        C  0.07754942  0.73960535  0.21334269    -0.22300
C679        C  0.07768654  0.76856644  0.21196565    -0.22300
C680        C  0.40808068  0.74197286  0.22007380    -0.22300
C681        C  0.40810919  0.77079056  0.22051774    -0.22300
C682        C  0.04355867  0.70319627  0.24417147    -0.17700
C683        C  0.44131007  0.70469551  0.24817761    -0.17700
C684        C  0.44196080  0.80694289  0.24999484    -0.17700
C685        C  0.04418788  0.80612649  0.24077941    -0.17700
H686        H  0.01965647  0.65290495  0.29027508     0.15200
H687        H  0.46471746  0.65369798  0.29215672     0.15200
H688        H  0.02187362  0.85451392  0.29542160     0.15200
H689        H  0.46676490  0.85569130  0.29868184     0.15200
H690        H  0.09463087  0.72607840  0.20095742     0.13500
H691        H  0.09493279  0.78150081  0.19851507     0.13500
H692        H  0.39144972  0.72891986  0.20563511     0.13500
H693        H  0.39119519  0.78422841  0.20695473     0.13500
H694        H  0.49237900  0.73072384  0.22152395     0.26800
H695        H  0.49236001  0.78050749  0.21779937     0.26800
C696        C  0.35150618  0.86373007  0.28538443     0.30600
C697        C  0.38365790  0.89660056  0.21994070     0.30600
C698        C  0.33817878  0.87231865  0.22836981    -0.05600
C699        C  0.35889132  0.89292354  0.31034839    -0.06400
C700        C  0.38011706  0.85136969  0.26925891    -0.06200
C701        C  0.35477093  0.88926554  0.19555215    -0.05600
C702        C  0.37542718  0.90987452  0.27674055    -0.06400
C703        C  0.39629887  0.86811240  0.23576198    -0.06200
C704        C  0.33971213  0.89610815  0.14796587    -0.31600
N705        N  0.31469374  0.88300105  0.14929111     0.14900
C706        C  0.31313564  0.86926708  0.19911034    -0.31600
H707        H  0.29472706  0.85826161  0.21299985     0.16800
C708        C  0.37912909  0.93499170  0.30537168    -0.30600
N709        N  0.36632586  0.93353713  0.35602260     0.13600
C710        C  0.35334843  0.90808968  0.35862969    -0.30600
C711        C  0.42102212  0.85387746  0.22552100    -0.30900
N712        N  0.42043941  0.82868866  0.25246439     0.14100
H713        H  0.43807141  0.86122447  0.19983103     0.16700
C714        C  0.39541734  0.82708833  0.27956205    -0.30900
H715        H  0.38873880  0.80947850  0.30480671     0.16700
H716        H  0.34073513  0.90110754  0.39330784     0.16700
H717        H  0.34626925  0.90990559  0.11464077     0.16800
H718        H  0.39039652  0.95316799  0.29055434     0.16700
N719        N  0.12313714  0.50358512  0.41586797    -0.36000
N720        N  0.12755320  0.54926760  0.49866770    -0.56600
N721        N  0.12258943  0.50734787  0.58733589    -0.36000
N722        N  0.12348141  0.96163993  0.50399402    -0.56600
C723        C  0.12972809  0.52591002  0.38325113     0.27600
C724        C  0.12896142  0.97989504  0.38664008     0.27600
C725        C  0.13057259  0.53053041  0.61621420     0.27600
C726        C  0.12805873  0.98428307  0.61926995     0.27600
C727        C  0.12077010  0.56401033  0.45205126     0.36200
C728        C  0.12238816  0.56640429  0.54280654     0.36200
C729        C  0.11739540  0.94498389  0.45997138     0.36200
C730        C  0.11644722  0.94703605  0.55044439     0.36200
C731        C  0.14029250  0.51632980  0.33311928    -0.21300
C732        C  0.13989271  0.98735208  0.33530525    -0.21300
C733        C  0.14151235  0.52192231  0.66653817    -0.21300
C734        C  0.13980125  0.99296342  0.66874719    -0.21300
C735        C  0.11106914  0.59042654  0.46704490    -0.22300
C736        C  0.11224577  0.59193040  0.52409251    -0.22300
C737        C  0.10629159  0.91984519  0.47857465    -0.22300
C738        C  0.10555332  0.92119212  0.53566905    -0.22300
C739        C  0.12452545  0.55459929  0.39602895    -0.17700
C740        C  0.12263153  0.95187948  0.40331978    -0.17700
C741        C  0.12182563  0.95569868  0.60594016    -0.17700
C742        C  0.12688383  0.55930437  0.59974514    -0.17700
H743        H  0.14737246  0.52889848  0.29832857     0.15200
H744        H  0.14661610  0.97339557  0.30246580     0.15200
H745        H  0.15039316  0.53518842  0.69785721     0.15200
H746        H  0.14683198  0.97981220  0.70270596     0.15200
H747        H  0.10336928  0.60685268  0.43993593     0.13500
H748        H  0.10548435  0.60948048  0.54899756     0.13500
H749        H  0.09921069  0.90241289  0.45372587     0.13500
H750        H  0.09781367  0.90491529  0.56309132     0.13500
H751        H  0.11211520  0.50464147  0.45319972     0.26800
H752        H  0.11146568  0.50736388  0.55025173     0.26800
N753        N  0.37108432  0.50628269  0.41586488    -0.36000
N754        N  0.37026670  0.54995975  0.50213378    -0.56600
N755        N  0.37219693  0.50636140  0.58787137    -0.36000
N756        N  0.36745842  0.96271707  0.50155803    -0.56600
C757        C  0.36502075  0.52978541  0.38599345     0.27600
C758        C  0.36298813  0.98374099  0.38541248     0.27600
C759        C  0.36519408  0.52935333  0.61837272     0.27600
C760        C  0.36554747  0.98322921  0.61831141     0.27600
C761        C  0.37673798  0.56575185  0.45684549     0.36200
C762        C  0.37595220  0.56583436  0.54740092     0.36200
C763        C  0.37278401  0.94686521  0.45575652     0.36200
C764        C  0.37473265  0.94688879  0.54644745     0.36200
C765        C  0.35266515  0.52204883  0.33649642    -0.21300
C766        C  0.35142887  0.99310252  0.33607549    -0.21300
C767        C  0.35365944  0.52060810  0.66838324    -0.21300
C768        C  0.35397765  0.99161604  0.66841645    -0.21300
C769        C  0.38691246  0.59156188  0.47352888    -0.22300
C770        C  0.38638295  0.59162837  0.53070907    -0.22300
C771        C  0.38375074  0.92122532  0.47174309    -0.22300
C772        C  0.38491754  0.92112027  0.52886903    -0.22300
C773        C  0.37163015  0.55793663  0.40081094    -0.17700
C774        C  0.36720796  0.95496692  0.39974429    -0.17700
C775        C  0.37095073  0.95481588  0.60310709    -0.17700
C776        C  0.37021845  0.55792758  0.60335997    -0.17700
H777        H  0.34506464  0.53583146  0.30410159     0.15200
H778        H  0.34281941  0.98043911  0.30319173     0.15200
H779        H  0.34562863  0.53367142  0.70148699     0.15200
H780        H  0.34625050  0.97827475  0.70148758     0.15200
H781        H  0.39398383  0.60863989  0.44732884     0.13500
H782        H  0.39307155  0.60871796  0.55689072     0.13500
H783        H  0.39113764  0.90478653  0.44479690     0.13500
H784        H  0.39292543  0.90417115  0.55437001     0.13500
H785        H  0.38272600  0.50561604  0.45221246     0.26800
H786        H  0.38346313  0.50633201  0.55085161     0.26800
C787        C  0.10161668  0.89712233  0.78295305     0.30600
C788        C  0.13766396  0.86490374  0.72420188     0.30600
C789        C  0.12969527  0.89031482  0.81264409    -0.05600
C790        C  0.09062407  0.86809146  0.76529081    -0.06400
C791        C  0.11210319  0.91053249  0.72810489    -0.06200
C792        C  0.14758268  0.87361509  0.78215954    -0.05600
C793        C  0.10865321  0.85162249  0.73467761    -0.06400
C794        C  0.12982384  0.89376977  0.69671638    -0.06200
C795        C  0.17213196  0.87055891  0.81154536    -0.31600
N796        N  0.17033450  0.88532726  0.85951446     0.14900
C797        C  0.14458495  0.89793480  0.86010647    -0.31600
H798        H  0.13743604  0.91202355  0.89234766     0.16800
C799        C  0.09410537  0.82716398  0.72162600    -0.30600
N800        N  0.06797868  0.82825899  0.74463129     0.13600
C801        C  0.06594587  0.85332506  0.77157541    -0.30600
C802        C  0.13468875  0.90868100  0.64757509    -0.30900
N803        N  0.12205537  0.93438370  0.64992721     0.14100
H804        H  0.14591112  0.90126391  0.61147473     0.16700
C805        C  0.10860885  0.93581776  0.69964247    -0.30900
H806        H  0.09648606  0.95372692  0.71341070     0.16700
H807        H  0.04777316  0.86040775  0.79439358     0.16700
H808        H  0.19017129  0.85848618  0.79860755     0.16800
H809        H  0.10199845  0.80985986  0.69705922     0.16700
N810        N  0.03765864  0.75526038  0.73899211    -0.36000
N811        N  0.49538482  0.79911945  0.74566281    -0.56600
N812        N  0.45140397  0.75582442  0.74252191    -0.36000
N813        N  0.49370962  0.71160609  0.74697320    -0.56600
C814        C  0.05306584  0.77807990  0.75318773     0.27600
C815        C  0.05215413  0.73196082  0.75467549     0.27600
C816        C  0.43673606  0.77916681  0.75736257     0.27600
C817        C  0.43575029  0.73299682  0.75617901     0.27600
C818        C  0.01804614  0.81485846  0.73231345     0.36200
C819        C  0.47258132  0.81519901  0.73488221     0.36200
C820        C  0.01644005  0.69568912  0.73398751     0.36200
C821        C  0.47078163  0.69600207  0.73509908     0.36200
C822        C  0.07720518  0.76913521  0.77895468    -0.21300
C823        C  0.07669143  0.74017243  0.77998153    -0.21300
C824        C  0.41169509  0.77098901  0.78117620    -0.21300
C825        C  0.41117686  0.74197347  0.78062860    -0.21300
C826        C  0.00951871  0.84077936  0.71214787    -0.22300
C827        C  0.48081755  0.84088104  0.71370728    -0.22300
C828        C  0.00781465  0.67005073  0.71326774    -0.22300
C829        C  0.47904978  0.67030032  0.71403358    -0.22300
C830        C  0.04620800  0.80672140  0.74208289    -0.17700
C831        C  0.04475169  0.70353354  0.74343888    -0.17700
C832        C  0.44254304  0.70434877  0.74494887    -0.17700
C833        C  0.44453588  0.80764748  0.74704785    -0.17700
H834        H  0.09318724  0.78216997  0.79643928     0.15200
H835        H  0.09254039  0.72673343  0.79794220     0.15200
H836        H  0.39549490  0.78451214  0.79764235     0.15200
H837        H  0.39482299  0.72888964  0.79736102     0.15200
H838        H  0.02254285  0.85779356  0.69755681     0.13500
H839        H  0.46742792  0.85767328  0.69994040     0.13500
H840        H  0.02081766  0.65303160  0.69835967     0.13500
H841        H  0.46569824  0.65376268  0.69943709     0.13500
H842        H  0.01965932  0.75543689  0.71496660     0.26800
H843        H  0.46973660  0.75559844  0.71927277     0.26800
C844        C  0.34966948  0.64867172  0.71559864     0.30600
C845        C  0.38167016  0.61595190  0.78198306     0.30600
C846        C  0.35784352  0.61945539  0.69194448    -0.05600
C847        C  0.37907705  0.66120161  0.72966748    -0.06400
C848        C  0.33724637  0.64214508  0.77331182    -0.06200
C849        C  0.37366211  0.60282663  0.72629662    -0.05600
C850        C  0.39521985  0.64437023  0.76479447    -0.06400
C851        C  0.35377950  0.62605246  0.80750848    -0.06200
C852        C  0.38013609  0.57837291  0.69768235    -0.31600
N853        N  0.36866590  0.57961786  0.64612044     0.14900
C854        C  0.35532484  0.60489569  0.64212067    -0.31600
H855        H  0.34474614  0.61225428  0.60521542     0.16800
C856        C  0.42002376  0.65861218  0.77448546    -0.30600
N857        N  0.42022826  0.68321463  0.74515686     0.13600
C858        C  0.39542982  0.68473793  0.71728761    -0.30600
C859        C  0.34058699  0.62507040  0.85890163    -0.30900
N860        N  0.31566774  0.63849455  0.85605055     0.14100
H861        H  0.34838095  0.61525362  0.89630472     0.16700
C862        C  0.31359911  0.64948237  0.80373212    -0.30900
H863        H  0.29619334  0.66187880  0.78880121     0.16700
H864        H  0.38981957  0.70174849  0.68954020     0.16700
H865        H  0.39285092  0.56117651  0.71291214     0.16800
H866        H  0.43673196  0.65158956  0.80125490     0.16700
N867        N  0.24274366  0.88239218  0.08941343    -0.36000
N868        N  0.19954061  0.88620138  0.00419963    -0.56600
N869        N  0.24327172  0.88240008  0.91724647    -0.36000
N870        N  0.28649701  0.88379445  0.00283509    -0.56600
C871        C  0.21988991  0.88915184  0.12014086     0.27600
C872        C  0.26551913  0.88926665  0.11965121     0.27600
C873        C  0.22042248  0.88974421  0.88688921     0.27600
C874        C  0.26643839  0.88736921  0.88566050     0.27600
C875        C  0.18372850  0.87966849  0.04938877     0.36200
C876        C  0.18366444  0.88105817  0.95883628     0.36200
C877        C  0.30195798  0.87805031  0.04890055     0.36200
C878        C  0.30238659  0.87698380  0.95774213     0.36200
C879        C  0.22824112  0.90079810  0.16992716    -0.21300
C880        C  0.25697197  0.90094733  0.16955793    -0.21300
C881        C  0.22928391  0.89975326  0.83565057    -0.21300
C882        C  0.25807204  0.89826536  0.83489603    -0.21300
C883        C  0.15790816  0.87015658  0.03249658    -0.22300
C884        C  0.15783052  0.87111237  0.97543231    -0.22300
C885        C  0.32762284  0.86734742  0.03282074    -0.22300
C886        C  0.32785072  0.86656644  0.97556741    -0.22300
C887        C  0.19176935  0.88363392  0.10568703    -0.17700
C888        C  0.29372494  0.88343949  0.10518250    -0.17700
C889        C  0.29481504  0.88142827  0.90078100    -0.17700
C890        C  0.19177952  0.88591703  0.90265039    -0.17700
H891        H  0.21501895  0.90843160  0.20314523     0.15200
H892        H  0.27006709  0.90867591  0.20254613     0.15200
H893        H  0.21636796  0.90741967  0.80207804     0.15200
H894        H  0.27128591  0.90478395  0.80082128     0.15200
H895        H  0.14091437  0.86290707  0.05838704     0.13500
H896        H  0.14078289  0.86458983  0.94933439     0.13500
H897        H  0.34442209  0.86046155  0.05947778     0.13500
H898        H  0.34485758  0.85890132  0.95012658     0.13500
H899        H  0.24279362  0.87085470  0.05280125     0.26800
H900        H  0.24290998  0.87192896  0.95520834     0.26800
N901        N  0.24429262  0.63123778  0.08806160    -0.36000
N902        N  0.28725022  0.63310592  0.00078348    -0.56600
N903        N  0.24371221  0.63584946  0.91679785    -0.36000
N904        N  0.20076132  0.62893917  0.00333142    -0.56600
C905        C  0.26752127  0.62443539  0.11746951     0.27600
C906        C  0.22173377  0.62412867  0.11940545     0.27600
C907        C  0.26674537  0.63072908  0.88550670     0.27600
C908        C  0.22137848  0.62741127  0.88699658     0.27600
C909        C  0.30311727  0.63767494  0.04637884     0.36200
C910        C  0.30234544  0.64180956  0.95611177     0.36200
C911        C  0.18487918  0.63382673  0.04922710     0.36200
C912        C  0.18469362  0.63501212  0.95839944     0.36200
C913        C  0.25948420  0.61262116  0.16777372    -0.21300
C914        C  0.23071813  0.61258633  0.16909532    -0.21300
C915        C  0.25896014  0.61839350  0.83594931    -0.21300
C916        C  0.23037487  0.61630808  0.83690723    -0.21300
C917        C  0.32824831  0.64951495  0.03059972    -0.22300
C918        C  0.32769505  0.65228121  0.97364679    -0.22300
C919        C  0.15869333  0.64309928  0.03315062    -0.22300
C920        C  0.15858723  0.64386099  0.97593740    -0.22300
C921        C  0.29567865  0.63032517  0.10183428    -0.17700
C922        C  0.19328390  0.62891414  0.10534928    -0.17700
C923        C  0.19303671  0.63159690  0.90185126    -0.17700
C924        C  0.29443629  0.63805967  0.89963528    -0.17700
H925        H  0.27291416  0.60487551  0.20044694     0.15200
H926        H  0.21789253  0.60479547  0.20279838     0.15200
H927        H  0.27239613  0.61138401  0.80255752     0.15200
H928        H  0.21766265  0.60760818  0.80426755     0.15200
H929        H  0.34515406  0.65580844  0.05730762     0.13500
H930        H  0.34417685  0.66093511  0.94811876     0.13500
H931        H  0.14147438  0.64911154  0.05973914     0.13500
H932        H  0.14130157  0.65059052  0.95039025     0.13500
H933        H  0.24379556  0.64277770  0.05130993     0.26800
H934        H  0.24303611  0.64734561  0.95348831     0.26800
C935        C  0.38616398  0.89771195  0.78429759     0.29000
C936        C  0.35299524  0.86554265  0.72044135     0.30600
C937        C  0.35718587  0.89004655  0.81076688    -0.05600
C938        C  0.37845903  0.91031115  0.72722100    -0.06400
C939        C  0.39828019  0.86831683  0.77009262    -0.06200
C940        C  0.34034558  0.87379188  0.77739567    -0.05600
C941        C  0.36210720  0.89370311  0.69442712    -0.06400
C942        C  0.38183704  0.85201910  0.73573410    -0.06200
C943        C  0.31566149  0.86867540  0.80655791    -0.31600
N944        N  0.31673289  0.88115522  0.85749890     0.14900
C945        C  0.34227480  0.89365508  0.86055783    -0.31600
H946        H  0.34950765  0.90415975  0.89739632     0.16800
C947        C  0.35835785  0.90788586  0.64445143    -0.30600
N948        N  0.37140518  0.93318086  0.64644898     0.13600
C949        C  0.38389225  0.93474858  0.69717091    -0.30600
C950        C  0.39841939  0.82886244  0.72114003    -0.30900
N951        N  0.42295862  0.82947116  0.74905040     0.14100
H952        H  0.39419410  0.81309123  0.69030019     0.16700
C953        C  0.42310912  0.85365298  0.77907182    -0.30900
H954        H  0.44025577  0.86035838  0.80475898     0.16700
H955        H  0.39613288  0.95235728  0.71126046     0.16700
H956        H  0.29828081  0.85645668  0.79170096     0.16800
H957        H  0.34650429  0.90053014  0.60933724     0.16700
C958        C  0.35197550  0.64635337  0.28016324     0.30600
C959        C  0.38539026  0.61290457  0.21766063     0.30600
C960        C  0.34005468  0.63735766  0.22380716    -0.05600
C961        C  0.38065906  0.65905883  0.26525186    -0.06400
C962        C  0.36068132  0.61819802  0.30796902    -0.06200
C963        C  0.35698747  0.62071917  0.19126677    -0.05600
C964        C  0.39750945  0.64251130  0.23137074    -0.06400
C965        C  0.37757307  0.60124575  0.27558739    -0.06200
C966        C  0.34261349  0.61637237  0.14182518    -0.31600
N967        N  0.31728722  0.62959938  0.14441663     0.14900
C968        C  0.31576240  0.64252060  0.19457322    -0.31600
H969        H  0.29831560  0.65516617  0.20857505     0.16800
C970        C  0.42069692  0.65893328  0.21871171    -0.30600
N971        N  0.41969747  0.68324307  0.24801185     0.13600
C972        C  0.39516036  0.68354868  0.27658049    -0.30600
C973        C  0.38410648  0.57753657  0.30670285    -0.30900
N974        N  0.37170685  0.57948155  0.35748619     0.14100
H975        H  0.39695768  0.56007410  0.29327112     0.16700
C976        C  0.35799999  0.60458128  0.35907606    -0.30900
H977        H  0.34720396  0.61229080  0.39545182     0.16700
H978        H  0.38826722  0.70042898  0.30337080     0.16700
H979        H  0.35002999  0.60437910  0.10662513     0.16800
H980        H  0.43693595  0.65458363  0.18879504     0.16700
C981        C  0.13858446  0.65128578  0.71875578     0.30600
C982        C  0.10718754  0.61541930  0.77967702     0.30600
C983        C  0.15068703  0.64274999  0.77653149    -0.05600
C984        C  0.10882764  0.66162735  0.73266946    -0.06400
C985        C  0.13332273  0.62188470  0.69109172    -0.06200
C986        C  0.13410011  0.62507871  0.80732904    -0.05600
C987        C  0.09240001  0.64337952  0.76296997    -0.06400
C988        C  0.11679695  0.60394262  0.72262665    -0.06200
C989        C  0.14738046  0.61933748  0.85716720    -0.31600
N990        N  0.17230591  0.63261356  0.85765789     0.14900
C991        C  0.17483180  0.64626939  0.80798031    -0.31600
H992        H  0.19348054  0.65727080  0.79540615     0.16800
C993        C  0.06625483  0.65630635  0.76766640    -0.30600
N994        N  0.06686089  0.68216298  0.74299560     0.13600
C995        C  0.09287415  0.68529057  0.72099748    -0.30600
C996        C  0.11241975  0.57976379  0.69184129    -0.30900
N997        N  0.12644256  0.58142396  0.64261184     0.14100
H998        H  0.09962980  0.56216487  0.70441449     0.16700
C999        C  0.13931357  0.60719549  0.64187849    -0.30900
H1000       H  0.15205080  0.61485024  0.60795493     0.16700
H1001       H  0.09980830  0.70359399  0.69807411     0.16700
H1002       H  0.13974656  0.60581113  0.89005286     0.16800
H1003       H  0.04797336  0.64768678  0.78763919     0.16700
C1004       C  0.13345916  0.86165418  0.28240783     0.30600
C1005       C  0.10237754  0.89841356  0.22327683     0.30600
C1006       C  0.14714874  0.87211807  0.22783257    -0.05600
C1007       C  0.10480964  0.85076672  0.26403843    -0.06400
C1008       C  0.12642757  0.88987528  0.31236087    -0.06200
C1009       C  0.13081173  0.89014608  0.19687866    -0.05600
C1010       C  0.08870475  0.86910612  0.23289041    -0.06400
C1011       C  0.11012190  0.90813538  0.28180621    -0.06200
C1012       C  0.14539628  0.89601495  0.14822487    -0.31600
N1013       N  0.17060260  0.88290401  0.14946059     0.14900
C1014       C  0.17207194  0.86869061  0.19865193    -0.31600
H1015       H  0.18986646  0.85634569  0.21176821     0.16800
C1016       C  0.06488674  0.85398021  0.21843975    -0.30600
N1017       N  0.06582032  0.82775960  0.24210427     0.13600
C1018       C  0.09032881  0.82584515  0.27000934    -0.30600
C1019       C  0.10643121  0.93244113  0.31234368    -0.30900
N1020       N  0.12065236  0.93010529  0.36087242     0.14100
H1021       H  0.09473783  0.95083174  0.29945539     0.16700
C1022       C  0.13336845  0.90435892  0.36082048    -0.30900
H1023       H  0.14744595  0.89723477  0.39293291     0.16700
H1024       H  0.09715826  0.80763698  0.29344277     0.16700
H1025       H  0.13821920  0.90888267  0.11398851     0.16800
H1026       H  0.04810803  0.86133903  0.19225576     0.16700
O1027       O  0.02186384  0.51992079  0.11002150    -0.79500
O1028       O  0.46822228  0.54911300  0.92903624    -0.79500
O1029       O  0.05466069  0.51657324  0.93715289    -0.79600
O1030       O  0.44814483  0.53370058  0.04154265    -0.79500
O1031       O  0.02209967  0.54755204  0.92497572    -0.79600
O1032       O  0.46725143  0.51675620  0.11476971    -0.79500
O1033       O  0.43475597  0.51962284  0.94568043    -0.79500
O1034       O  0.04340652  0.53291233  0.03576961    -0.79600
C1035       C  0.03863773  0.53605161  0.08608637     1.10200
C1036       C  0.44322692  0.54245749  0.92454116     1.10000
C1037       C  0.04698227  0.54055783  0.92038230     1.10200
C1038       C  0.45141007  0.53425105  0.09237390     1.10100
O1039       O  0.46764797  0.96310881  0.05928687    -0.79500
O1040       O  0.02098375  0.99010891  0.88159606    -0.79600
O1041       O  0.06591652  0.98139863  0.02620091    -0.79500
O1042       O  0.46405446  0.96608695  0.95583331    -0.79500
O1043       O  0.46567394  0.99321070  0.88304788    -0.79600
O1044       O  0.02568441  0.96603437  0.05659492    -0.79500
O1045       O  0.42668964  0.98132088  0.03502578    -0.79500
O1046       O  0.02348674  0.96480890  0.95646826    -0.79600
Co1047     Co  0.49555758  0.49318028  0.07688935     1.51500
Co1048     Co  0.49442649  0.51992315  0.90957494     1.51700
Co1049     Co  0.03276822  0.49862998  0.99859273     1.51600
Co1050     Co  0.45767151  0.49939793  0.00261837     1.51500
O1051       O  0.49499255  0.51241128  0.99309937    -1.41500
C1052       C  0.44103203  0.96400067  0.06331550     1.10100
C1053       C  0.02657361  0.96690007  0.90530852     1.10200
C1054       C  0.05186693  0.96896702  0.06367770     1.10100
C1055       C  0.45894545  0.97031222  0.90558293     1.10100
O1056       O  0.26634092  0.71238656  0.44065382    -0.79500
O1057       O  0.26173253  0.81844102  0.54918241    -0.79500
O1058       O  0.28207176  0.77282920  0.42956347    -0.79600
O1059       O  0.28504190  0.72821023  0.54679479    -0.79500
O1060       O  0.25703749  0.81166910  0.43955793    -0.79600
O1061       O  0.25265605  0.69777286  0.54729810    -0.79500
O1062       O  0.29050044  0.78290723  0.55276722    -0.79500
O1063       O  0.25761451  0.73504066  0.36167276    -0.79600
C1064       C  0.27012817  0.71573466  0.38803561     1.10200
C1065       C  0.28549574  0.80832743  0.56124899     1.10000
C1066       C  0.27885462  0.79884013  0.42277634     1.10200
C1067       C  0.27681344  0.70462098  0.56163256     1.10100
O1068       O  0.20285134  0.72972029  0.54317057    -0.79500
O1069       O  0.20117060  0.78695013  0.45947058    -0.79600
O1070       O  0.21072049  0.73083936  0.42120192    -0.79500
O1071       O  0.24181582  0.78724344  0.62396870    -0.79500
O1072       O  0.20748649  0.79352211  0.56542904    -0.79600
O1073       O  0.21616344  0.69029958  0.46502832    -0.79500
O1074       O  0.23254489  0.73204629  0.61309686    -0.79500
O1075       O  0.22646068  0.78055372  0.38705025    -0.79600
Co1076     Co  0.23333658  0.72284415  0.49219748     1.51500
Co1077     Co  0.23160427  0.80112411  0.50306884     1.51700
Co1078     Co  0.24793954  0.75146914  0.42975454     1.51600
Co1079     Co  0.26272047  0.75737401  0.58129671     1.51500
O1080       O  0.24437363  0.76186022  0.50879792    -1.41500
C1081       C  0.20815360  0.72690802  0.59418500     1.10100
C1082       C  0.20403094  0.78923172  0.40847337     1.10200
C1083       C  0.20397600  0.70510571  0.42875193     1.10100
C1084       C  0.21759703  0.79632068  0.61276292     1.10100
C1085       C  0.08755911  0.92132772  0.19215010     0.00500
C1086       C  0.10363198  0.94289734  0.16799805    -0.11400
C1087       C  0.09256647  0.95962680  0.12624450     0.02700
C1088       C  0.06449136  0.95589506  0.11199441     0.00400
C1089       C  0.04717381  0.93980622  0.14681973    -0.11400
C1090       C  0.05850390  0.92338307  0.18854667     0.02600
H1091       H  0.12532612  0.94546105  0.17912807     0.15600
H1092       H  0.02473136  0.93994705  0.14171999     0.15600
C1093       C  0.04006421  0.91312767  0.23127905     0.37200
C1094       C  0.11038540  0.97992584  0.09913812     0.37100
N1095       N  0.02459919  0.90626622  0.26562742    -0.43100
N1096       N  0.12468669  0.49623821  0.07767480    -0.43100
C1097       C  0.14912296  0.83955351  0.31426352     0.00500
C1098       C  0.14656957  0.83926894  0.37201337    -0.11400
C1099       C  0.16348206  0.82222021  0.40391147     0.02700
C1100       C  0.18258324  0.80389284  0.37717199     0.00400
C1101       C  0.18123820  0.80024109  0.31976643    -0.11400
C1102       C  0.16342521  0.81698655  0.28829466     0.02600
H1103       H  0.13136408  0.85240893  0.39275272     0.15600
H1104       H  0.19391930  0.78428038  0.29969177     0.15600
C1105       C  0.15918850  0.80941689  0.23094668     0.37200
C1106       C  0.16128404  0.82532311  0.46355674     0.37100
N1107       N  0.15586561  0.80314815  0.18508135    -0.43100
N1108       N  0.15938277  0.82794364  0.51117885    -0.43100
C1109       C  0.18700562  0.71314217  0.62903959     0.00500
C1110       C  0.16453998  0.69985496  0.60271036    -0.11400
C1111       C  0.14814998  0.68039411  0.63114159     0.02700
C1112       C  0.15441919  0.67371668  0.68680588     0.00400
C1113       C  0.17231509  0.69208341  0.71525818    -0.11400
C1114       C  0.18970187  0.71050765  0.68683285     0.02600
H1115       H  0.16026507  0.70384481  0.55923138     0.15600
H1116       H  0.17230154  0.69307785  0.75988106     0.15600
C1117       C  0.20978251  0.72634186  0.71825276     0.37200
C1118       C  0.12389271  0.66948707  0.60351149     0.37100
N1119       N  0.22587728  0.73891222  0.74362005    -0.43100
N1120       N  0.10407688  0.66148949  0.58157825    -0.43100
C1121       C  0.06524434  0.55999860  0.89221932     0.00500
C1122       C  0.08794951  0.54971607  0.86231572    -0.11400
C1123       C  0.10258664  0.56757647  0.82717947     0.02700
C1124       C  0.09246505  0.59530116  0.81765424     0.00400
C1125       C  0.07287410  0.60626556  0.85498306    -0.11400
C1126       C  0.05892443  0.58896919  0.89155554     0.02600
H1127       H  0.09435436  0.52792191  0.86669859     0.15600
H1128       H  0.06945694  0.62859208  0.85849749     0.15600
C1129       C  0.03905500  0.60182368  0.92919952     0.37200
C1130       C  0.12971656  0.55815175  0.80888495     0.37100
N1131       N  0.02323655  0.61225394  0.95918991    -0.43100
N1132       N  0.15195748  0.55070979  0.79728942    -0.43100
C1133       C  0.40282727  0.59182719  0.18573516     0.00500
C1134       C  0.43161049  0.59589856  0.17911524    -0.11400
C1135       C  0.44752728  0.57816848  0.14624234     0.02700
C1136       C  0.43546603  0.55379734  0.12531664     0.00400
C1137       C  0.40765574  0.54750340  0.13669248    -0.11400
C1138       C  0.39124383  0.56614397  0.16710308     0.02600
H1139       H  0.44249593  0.61177554  0.20149235     0.15600
H1140       H  0.39883353  0.52796415  0.12189653     0.15600
C1141       C  0.36323786  0.55751456  0.18111822     0.37200
C1142       C  0.47559235  0.58637044  0.13221568     0.37100
N1143       N  0.34085877  0.55059561  0.19263869    -0.43100
N1144       N  0.49761440  0.59400008  0.11994911    -0.43100
C1145       C  0.33152833  0.66525329  0.30960925     0.00500
C1146       C  0.31266972  0.65324810  0.34741199    -0.11400
C1147       C  0.29248673  0.66936380  0.37342306     0.02700
C1148       C  0.29011549  0.69797030  0.35986975     0.00400
C1149       C  0.30645419  0.70950231  0.31759615    -0.11400
C1150       C  0.32619315  0.69303044  0.29058330     0.02600
H1151       H  0.31181008  0.63085106  0.35359949     0.15600
H1152       H  0.30309391  0.73107599  0.30430646     0.15600
C1153       C  0.33663450  0.70347394  0.23819523     0.37200
C1154       C  0.27309111  0.65541307  0.41022913     0.37100
N1155       N  0.34354504  0.71132734  0.19479339    -0.43100
N1156       N  0.25753695  0.64394549  0.43917199    -0.43100
C1157       C  0.33302244  0.84984227  0.68403358     0.00500
C1158       C  0.33840466  0.82191206  0.67076731    -0.11400
C1159       C  0.32651728  0.80976050  0.62475331     0.02700
C1160       C  0.30433750  0.82376836  0.59750430     0.00400
C1161       C  0.29607103  0.85048203  0.61581678    -0.11400
C1162       C  0.30984402  0.86343144  0.65935804     0.02600
H1163       H  0.35134312  0.80903406  0.69679266     0.15600
H1164       H  0.27842748  0.86106546  0.59715339     0.15600
C1165       C  0.29956508  0.89043924  0.67798259     0.37200
C1166       C  0.33811529  0.78312010  0.60706745     0.37100
N1167       N  0.29154183  0.91217124  0.69258418    -0.43100
N1168       N  0.34802117  0.76212535  0.59277995    -0.43100
C1169       C  0.40572807  0.91681776  0.81480947     0.00500
C1170       C  0.39492179  0.93457478  0.85543030    -0.11400
C1171       C  0.41211539  0.95141118  0.88658262     0.02700
C1172       C  0.44094544  0.95140337  0.87595847     0.00400
C1173       C  0.45150082  0.93705260  0.83008580    -0.11400
C1174       C  0.43380982  0.92079448  0.79778450     0.02600
H1175       H  0.37279059  0.93729212  0.86026931     0.15600
H1176       H  0.47311394  0.93975252  0.81793168     0.15600
C1177       C  0.44374311  0.91256341  0.74361116     0.37200
C1178       C  0.39865314  0.96943770  0.92642559     0.37100
N1179       N  0.45132793  0.90739404  0.69915898    -0.43100
N1180       N  0.38593680  0.98306041  0.95710643    -0.43100
C1181       C  0.39781502  0.59527202  0.81654901     0.00500
C1182       C  0.38341104  0.57797532  0.85461790    -0.11400
C1183       C  0.39763031  0.56168671  0.89285056     0.02700
C1184       C  0.42646270  0.55909187  0.88716182     0.00400
C1185       C  0.44020360  0.57151173  0.84170230    -0.11400
C1186       C  0.42596628  0.58905538  0.80558799     0.02600
H1187       H  0.36098400  0.57668256  0.85462805     0.15600
H1188       H  0.46206984  0.56711562  0.83376105     0.15600
C1189       C  0.43969084  0.59710800  0.75456754     0.37200
C1190       C  0.38237424  0.54978697  0.93900669     0.37100
N1191       N  0.45051761  0.60248765  0.71289691    -0.43100
N1192       N  0.36987845  0.54108310  0.97644081    -0.43100
C1193       C  0.32881946  0.66422598  0.67999711     0.00500
C1194       C  0.30803175  0.64846274  0.65290616    -0.11400
C1195       C  0.29034642  0.66088145  0.61426182     0.02700
C1196       C  0.29248387  0.68982641  0.60462619     0.00400
C1197       C  0.30898773  0.70616758  0.64008813    -0.11400
C1198       C  0.32616966  0.69363070  0.67937763     0.02600
H1199       H  0.30573132  0.62621624  0.66128133     0.15600
H1200       H  0.30762940  0.72890845  0.63859908     0.15600
C1201       C  0.33699144  0.71107920  0.72292877     0.37200
C1202       C  0.27062242  0.64349567  0.58535246     0.37100
N1203       N  0.34462050  0.72538530  0.75840223    -0.43100
N1204       N  0.25470522  0.62941406  0.56281924    -0.43100
C1205       C  0.04065110  0.94421003  0.87531086     0.00500
C1206       C  0.03893928  0.94371073  0.81746041    -0.11400
C1207       C  0.05682176  0.92657629  0.78695183     0.02700
C1208       C  0.07947489  0.91314556  0.81409978     0.00400
C1209       C  0.07798441  0.90996720  0.87176661    -0.11400
C1210       C  0.05834828  0.92470559  0.90256815     0.02600
H1211       H  0.02348274  0.95646081  0.79620967     0.15600
H1212       H  0.09154889  0.89523586  0.89295772     0.15600
C1213       C  0.05685561  0.91844824  0.96120745     0.37200
C1214       C  0.05006680  0.92165802  0.72942523     0.37100
N1215       N  0.05592707  0.91206972  0.00757978    -0.43100
N1216       N  0.04449580  0.91749658  0.68349370    -0.43100
C1217       C  0.15965319  0.84652457  0.69767798     0.00500
C1218       C  0.17899027  0.85889234  0.66157012    -0.11400
C1219       C  0.19929593  0.84301498  0.63563706     0.02700
C1220       C  0.20236094  0.81450590  0.64979675     0.00400
C1221       C  0.18604968  0.80276798  0.69173859    -0.11400
C1222       C  0.16526888  0.81882377  0.71713812     0.02600
H1223       H  0.17941932  0.88120444  0.65474993     0.15600
H1224       H  0.18899689  0.78098488  0.70353890     0.15600
C1225       C  0.15243388  0.80741645  0.76652609     0.37200
C1226       C  0.21543718  0.85644854  0.59235488     0.37100
N1227       N  0.14312762  0.79857750  0.80734280    -0.43100
N1228       N  0.22743363  0.86797190  0.55733391    -0.43100
C1229       C  0.33510472  0.84397830  0.32190694     0.00500
C1230       C  0.31563817  0.82602772  0.29753734    -0.11400
C1231       C  0.29675452  0.81138556  0.32999267     0.02700
C1232       C  0.29860877  0.81326565  0.38800981     0.00400
C1233       C  0.32118699  0.82660211  0.41251953    -0.11400
C1234       C  0.34035298  0.84083746  0.37937119     0.02600
H1235       H  0.31542837  0.82276478  0.25324243     0.15600
H1236       H  0.32424869  0.82513578  0.45705534     0.15600
C1237       C  0.36652416  0.84851365  0.40399579     0.37200
C1238       C  0.27581171  0.79481719  0.30247219     0.37100
N1239       N  0.38780942  0.85337165  0.42400381    -0.43100
N1240       N  0.25928833  0.78180935  0.27914327    -0.43100
C1241       C  0.42821123  0.94504519  0.10157840     0.00500
C1242       C  0.43505486  0.94816351  0.15763283    -0.11400
C1243       C  0.42314136  0.93066624  0.19718671     0.02700
C1244       C  0.40225049  0.91199012  0.18030296     0.00400
C1245       C  0.40087626  0.90483336  0.12374096    -0.11400
C1246       C  0.41278145  0.92197203  0.08389769     0.02600
H1247       H  0.45018469  0.96376494  0.17016482     0.15600
H1248       H  0.38975652  0.88629857  0.11042441     0.15600
C1249       C  0.40970806  0.91465456  0.02619014     0.37200
C1250       C  0.43569680  0.92921682  0.25144230     0.37100
N1251       N  0.40699509  0.90775070  0.98056108    -0.43100
N1252       N  0.44622316  0.92771289  0.29449744    -0.43100
C1253       C  0.14803531  0.66589905  0.32065178     0.00500
C1254       C  0.14523114  0.66151973  0.37805836    -0.11400
C1255       C  0.16418157  0.67289355  0.41424463     0.02700
C1256       C  0.18234209  0.69356474  0.39436211     0.00400
C1257       C  0.17995490  0.70348106  0.33948047    -0.11400
C1258       C  0.16263776  0.68980026  0.30224894     0.02600
H1259       H  0.12920070  0.64802919  0.39480991     0.15600
H1260       H  0.19249111  0.72097975  0.32500414     0.15600
C1261       C  0.15912529  0.70150703  0.24729603     0.37200
C1262       C  0.16562689  0.66138682  0.46968922     0.37100
N1263       N  0.15608358  0.71108625  0.20347836    -0.43100
N1264       N  0.16725715  0.65105297  0.51309852    -0.43100
C1265       C  0.08277099  0.59528098  0.18305814     0.00500
C1266       C  0.08660660  0.59484747  0.12564154    -0.11400
C1267       C  0.07377735  0.57484247  0.09350971     0.02700
C1268       C  0.05296346  0.55777165  0.11750277     0.00400
C1269       C  0.04532518  0.56193335  0.17322542    -0.11400
C1270       C  0.05960536  0.58106076  0.20582505     0.02600
H1271       H  0.09977678  0.61000759  0.10519028     0.15600
H1272       H  0.02814325  0.55033754  0.19145085     0.15600
C1273       C  0.04908174  0.58666891  0.26097037     0.37200
C1274       C  0.08491287  0.57114723  0.03836153     0.37100
N1275       N  0.04042511  0.59124446  0.30494121    -0.43100
N1276       N  0.09565485  0.56853200  0.99566214    -0.43100
C1277       C  0.60200033  0.11257706  0.21788069     0.30600
C1278       C  0.63321475  0.14634881  0.28215920     0.30600
C1279       C  0.63095086  0.12099558  0.19272435    -0.05600
C1280       C  0.58863926  0.14095922  0.23327693    -0.06400
C1281       C  0.61086488  0.09945749  0.27425152    -0.06200
C1282       C  0.64680783  0.13871745  0.22554916    -0.05600
C1283       C  0.60441415  0.15791884  0.26648470    -0.06400
C1284       C  0.62733579  0.11659767  0.30632133    -0.06200
C1285       C  0.67209359  0.14278748  0.19793684    -0.31600
N1286       N  0.67205408  0.12825819  0.14920841     0.14900
C1287       C  0.64765622  0.11389966  0.14728115    -0.31600
H1288       H  0.64302209  0.09881535  0.11523129     0.16800
C1289       C  0.58947713  0.18257175  0.27483234    -0.30600
N1290       N  0.56498614  0.18127023  0.24651974     0.13600
C1291       C  0.56440392  0.15575193  0.22081627    -0.30600
C1292       C  0.63624888  0.10055886  0.35128414    -0.30900
N1293       N  0.62357128  0.07518218  0.35081021     0.14100
H1294       H  0.65104847  0.10668178  0.38267242     0.16700
C1295       C  0.60869844  0.07386335  0.30265609    -0.30900
H1296       H  0.59702904  0.05570129  0.28944061     0.16700
H1297       H  0.54773789  0.14857136  0.19436037     0.16700
H1298       H  0.68932376  0.15535600  0.21226297     0.16800
H1299       H  0.59616527  0.20034298  0.29920750     0.16700
N1300       N  0.99244083  0.21168481  0.24289948    -0.36000
N1301       N  0.53588911  0.25478330  0.24349522    -0.56600
N1302       N  0.99292212  0.29889348  0.24104895    -0.36000
N1303       N  0.94970133  0.25575046  0.25143281    -0.56600
C1304       C  0.51525801  0.19574847  0.25466226     0.27600
C1305       C  0.96954357  0.19643340  0.25666077     0.27600
C1306       C  0.51612992  0.31384866  0.25339575     0.27600
C1307       C  0.97043314  0.31429451  0.25759270     0.27600
C1308       C  0.55162830  0.23153646  0.23307754     0.36200
C1309       C  0.55186629  0.27751078  0.23103219     0.36200
C1310       C  0.93368498  0.23317924  0.23950192     0.36200
C1311       C  0.93393074  0.27879714  0.24007497     0.36200
C1312       C  0.50665346  0.17014287  0.27631759    -0.21300
C1313       C  0.97791297  0.17054931  0.27740447    -0.21300
C1314       C  0.50824028  0.33870544  0.27876034    -0.21300
C1315       C  0.97949586  0.33915142  0.28096032    -0.21300
C1316       C  0.57754939  0.23960535  0.21334268    -0.22300
C1317       C  0.57768650  0.26856644  0.21196561    -0.22300
C1318       C  0.90808064  0.24197285  0.22007381    -0.22300
C1319       C  0.90810914  0.27079056  0.22051776    -0.22300
C1320       C  0.54355868  0.20319625  0.24417147    -0.17700
C1321       C  0.94131005  0.20469550  0.24817762    -0.17700
C1322       C  0.94196077  0.30694288  0.24999484    -0.17700
C1323       C  0.54418786  0.30612651  0.24077930    -0.17700
H1324       H  0.51965647  0.15290491  0.29027510     0.15200
H1325       H  0.96471750  0.15369797  0.29215672     0.15200
H1326       H  0.52187362  0.35451393  0.29542155     0.15200
H1327       H  0.96676486  0.35569128  0.29868182     0.15200
H1328       H  0.59463086  0.22607843  0.20095738     0.13500
H1329       H  0.59493273  0.28150082  0.19851499     0.13500
H1330       H  0.89144969  0.22891985  0.20563515     0.13500
H1331       H  0.89119513  0.28422840  0.20695476     0.13500
H1332       H  0.99237897  0.23072385  0.22152397     0.26800
H1333       H  0.99235996  0.28050748  0.21779934     0.26800
C1334       C  0.85150619  0.36373007  0.28538440     0.30600
C1335       C  0.88365792  0.39660057  0.21994068     0.30600
C1336       C  0.83817879  0.37231863  0.22836974    -0.05600
C1337       C  0.85889131  0.39292355  0.31034838    -0.06400
C1338       C  0.88011707  0.35136971  0.26925891    -0.06200
C1339       C  0.85477094  0.38926554  0.19555210    -0.05600
C1340       C  0.87542716  0.40987453  0.27674051    -0.06400
C1341       C  0.89629888  0.36811241  0.23576201    -0.06200
C1342       C  0.83971210  0.39610818  0.14796586    -0.31600
N1343       N  0.81469371  0.38300107  0.14929112     0.14900
C1344       C  0.81313563  0.36926705  0.19911029    -0.31600
H1345       H  0.79472708  0.35826154  0.21299980     0.16800
C1346       C  0.87912905  0.43499171  0.30537162    -0.30600
N1347       N  0.86632586  0.43353714  0.35602259     0.13600
C1348       C  0.85334846  0.40808966  0.35862974    -0.30600
C1349       C  0.92102211  0.35387746  0.22552105    -0.30900
N1350       N  0.92043939  0.32868865  0.25246439     0.14100
H1351       H  0.93807142  0.36122447  0.19983111     0.16700
C1352       C  0.89541733  0.32708833  0.27956203    -0.30900
H1353       H  0.88873877  0.30947849  0.30480663     0.16700
H1354       H  0.84073525  0.40110746  0.39330799     0.16700
H1355       H  0.84626923  0.40990562  0.11464076     0.16800
H1356       H  0.89039650  0.45316798  0.29055427     0.16700
N1357       N  0.62313712  0.00358512  0.41586795    -0.36000
N1358       N  0.62755331  0.04926761  0.49866770    -0.56600
N1359       N  0.62258942  0.00734787  0.58733591    -0.36000
N1360       N  0.62348137  0.46163994  0.50399400    -0.56600
C1361       C  0.62972809  0.02591001  0.38325114     0.27600
C1362       C  0.62896140  0.47989504  0.38664007     0.27600
C1363       C  0.63057263  0.03053039  0.61621416     0.27600
C1364       C  0.62805867  0.48428307  0.61926997     0.27600
C1365       C  0.62077020  0.06401035  0.45205126     0.36200
C1366       C  0.62238821  0.06640428  0.54280654     0.36200
C1367       C  0.61739532  0.44498391  0.45997136     0.36200
C1368       C  0.61644727  0.44703603  0.55044438     0.36200
C1369       C  0.64029248  0.01632980  0.33311927    -0.21300
C1370       C  0.63989275  0.48735208  0.33530529    -0.21300
C1371       C  0.64151239  0.02192228  0.66653813    -0.21300
C1372       C  0.63980118  0.49296341  0.66874723    -0.21300
C1373       C  0.61106921  0.09042654  0.46704489    -0.22300
C1374       C  0.61224579  0.09193037  0.52409251    -0.22300
C1375       C  0.60629154  0.41984519  0.47857467    -0.22300
C1376       C  0.60555338  0.42119209  0.53566907    -0.22300
C1377       C  0.62452550  0.05459929  0.39602896    -0.17700
C1378       C  0.62263145  0.45187949  0.40331976    -0.17700
C1379       C  0.62182561  0.45569868  0.60594017    -0.17700
C1380       C  0.62688387  0.05930435  0.59974514    -0.17700
H1381       H  0.64737239  0.02889847  0.29832851     0.15200
H1382       H  0.64661615  0.47339556  0.30246585     0.15200
H1383       H  0.65039323  0.03518838  0.69785716     0.15200
H1384       H  0.64683189  0.47981220  0.70270601     0.15200
H1385       H  0.60336934  0.10685268  0.43993591     0.13500
H1386       H  0.60548429  0.10948041  0.54899759     0.13500
H1387       H  0.59921058  0.40241291  0.45372590     0.13500
H1388       H  0.59781375  0.40491526  0.56309137     0.13500
H1389       H  0.61211512  0.00464148  0.45319967     0.26800
H1390       H  0.61146561  0.00736391  0.55025178     0.26800
N1391       N  0.87108431  0.00628269  0.41586491    -0.36000
N1392       N  0.87026674  0.04995973  0.50213377    -0.56600
N1393       N  0.87219687  0.00636141  0.58787134    -0.36000
N1394       N  0.86745855  0.46271709  0.50155804    -0.56600
C1395       C  0.86502078  0.02978541  0.38599343     0.27600
C1396       C  0.86298823  0.48374099  0.38541247     0.27600
C1397       C  0.86519400  0.02935334  0.61837270     0.27600
C1398       C  0.86554747  0.48322921  0.61831144     0.27600
C1399       C  0.87673798  0.06575186  0.45684549     0.36200
C1400       C  0.87595216  0.06583436  0.54740093     0.36200
C1401       C  0.87278409  0.44686521  0.45575652     0.36200
C1402       C  0.87473273  0.44688878  0.54644747     0.36200
C1403       C  0.85266515  0.02204883  0.33649644    -0.21300
C1404       C  0.85142898  0.49310253  0.33607550    -0.21300
C1405       C  0.85365940  0.02060810  0.66838323    -0.21300
C1406       C  0.85397764  0.49161602  0.66841646    -0.21300
C1407       C  0.88691239  0.09156191  0.47352891    -0.22300
C1408       C  0.88638288  0.09162840  0.53070910    -0.22300
C1409       C  0.88375071  0.42122528  0.47174309    -0.22300
C1410       C  0.88491753  0.42112023  0.52886904    -0.22300
C1411       C  0.87163022  0.05793662  0.40081092    -0.17700
C1412       C  0.86720804  0.45496693  0.39974429    -0.17700
C1413       C  0.87095080  0.45481588  0.60310711    -0.17700
C1414       C  0.87021837  0.05792759  0.60335997    -0.17700
H1415       H  0.84506460  0.03583148  0.30410166     0.15200
H1416       H  0.84281956  0.48043913  0.30319169     0.15200
H1417       H  0.84562859  0.03367139  0.70148703     0.15200
H1418       H  0.84625049  0.47827472  0.70148757     0.15200
H1419       H  0.89398379  0.10863991  0.44732887     0.13500
H1420       H  0.89307150  0.10871797  0.55689076     0.13500
H1421       H  0.89113756  0.40478647  0.44479688     0.13500
H1422       H  0.89292539  0.40417108  0.55436999     0.13500
H1423       H  0.88272595  0.00561604  0.45221249     0.26800
H1424       H  0.88346307  0.00633203  0.55085159     0.26800
C1425       C  0.60161670  0.39712233  0.78295305     0.30600
C1426       C  0.63766397  0.36490375  0.72420187     0.30600
C1427       C  0.62969530  0.39031482  0.81264405    -0.05600
C1428       C  0.59062408  0.36809146  0.76529082    -0.06400
C1429       C  0.61210317  0.41053250  0.72810488    -0.06200
C1430       C  0.64758272  0.37361511  0.78215949    -0.05600
C1431       C  0.60865321  0.35162249  0.73467760    -0.06400
C1432       C  0.62982383  0.39376978  0.69671638    -0.06200
C1433       C  0.67213202  0.37055894  0.81154532    -0.31600
N1434       N  0.67033452  0.38532727  0.85951443     0.14900
C1435       C  0.64458497  0.39793478  0.86010644    -0.31600
H1436       H  0.63743606  0.41202350  0.89234766     0.16800
C1437       C  0.59410537  0.32716397  0.72162598    -0.30600
N1438       N  0.56797868  0.32825898  0.74463130     0.13600
C1439       C  0.56594588  0.35332505  0.77157545    -0.30600
C1440       C  0.63468876  0.40868102  0.64757513    -0.30900
N1441       N  0.62205536  0.43438372  0.64992724     0.14100
H1442       H  0.64591116  0.40126395  0.61147481     0.16700
C1443       C  0.60860886  0.43581779  0.69964250    -0.30900
H1444       H  0.59648610  0.45372697  0.71341079     0.16700
H1445       H  0.54777318  0.36040773  0.79439366     0.16700
H1446       H  0.69017137  0.35848622  0.79860759     0.16800
H1447       H  0.60199846  0.30985986  0.69705918     0.16700
N1448       N  0.53765860  0.25526038  0.73899213    -0.36000
N1449       N  0.99538482  0.29911945  0.74566281    -0.56600
N1450       N  0.95140397  0.25582441  0.74252185    -0.36000
N1451       N  0.99370964  0.21160610  0.74697320    -0.56600
C1452       C  0.55306577  0.27807990  0.75318783     0.27600
C1453       C  0.55215411  0.23196082  0.75467550     0.27600
C1454       C  0.93673603  0.27916682  0.75736258     0.27600
C1455       C  0.93575027  0.23299681  0.75617899     0.27600
C1456       C  0.51804611  0.31485847  0.73231346     0.36200
C1457       C  0.97258132  0.31519900  0.73488222     0.36200
C1458       C  0.51644006  0.19568911  0.73398749     0.36200
C1459       C  0.97078165  0.19600205  0.73509906     0.36200
C1460       C  0.57720508  0.26913521  0.77895489    -0.21300
C1461       C  0.57669139  0.24017242  0.77998162    -0.21300
C1462       C  0.91169509  0.27098903  0.78117624    -0.21300
C1463       C  0.91117686  0.24197348  0.78062859    -0.21300
C1464       C  0.50951868  0.34077938  0.71214787    -0.22300
C1465       C  0.98081754  0.34088101  0.71370729    -0.22300
C1466       C  0.50781467  0.17005072  0.71326773    -0.22300
C1467       C  0.97904982  0.17030031  0.71403356    -0.22300
C1468       C  0.54620797  0.30672141  0.74208290    -0.17700
C1469       C  0.54475169  0.20353355  0.74343885    -0.17700
C1470       C  0.94254307  0.20434876  0.74494890    -0.17700
C1471       C  0.94453588  0.30764748  0.74704785    -0.17700
H1472       H  0.59318711  0.28216998  0.79643953     0.15200
H1473       H  0.59254038  0.22673343  0.79794218     0.15200
H1474       H  0.89549491  0.28451216  0.79764252     0.15200
H1475       H  0.89482299  0.22888966  0.79736107     0.15200
H1476       H  0.52254281  0.35779358  0.69755682     0.13500
H1477       H  0.96742788  0.35767323  0.69994041     0.13500
H1478       H  0.52081766  0.15303158  0.69835965     0.13500
H1479       H  0.96569833  0.15376262  0.69943706     0.13500
H1480       H  0.51965930  0.25543689  0.71496654     0.26800
H1481       H  0.96973650  0.25559844  0.71927288     0.26800
C1482       C  0.84966951  0.14867176  0.71559862     0.30600
C1483       C  0.88167013  0.11595191  0.78198307     0.30600
C1484       C  0.85784353  0.11945543  0.69194448    -0.05600
C1485       C  0.87907709  0.16120163  0.72966744    -0.06400
C1486       C  0.83724638  0.14214516  0.77331183    -0.06200
C1487       C  0.87366208  0.10282664  0.72629663    -0.05600
C1488       C  0.89521986  0.14437023  0.76479451    -0.06400
C1489       C  0.85377947  0.12605248  0.80750849    -0.06200
C1490       C  0.88013601  0.07837290  0.69768237    -0.31600
N1491       N  0.86866583  0.07961785  0.64612046     0.14900
C1492       C  0.85532482  0.10489571  0.64212068    -0.31600
H1493       H  0.84474613  0.11225431  0.60521543     0.16800
C1494       C  0.92002378  0.15861215  0.77448553    -0.30600
N1495       N  0.92022830  0.18321460  0.74515688     0.13600
C1496       C  0.89542989  0.18473793  0.71728756    -0.30600
C1497       C  0.84058693  0.12507038  0.85890160    -0.30900
N1498       N  0.81566769  0.13849457  0.85605053     0.14100
H1499       H  0.84838087  0.11525358  0.89630469     0.16700
C1500       C  0.81359910  0.14948244  0.80373213    -0.30900
H1501       H  0.79619333  0.16187889  0.78880123     0.16700
H1502       H  0.88981969  0.20174851  0.68954016     0.16700
H1503       H  0.89285083  0.06117648  0.71291216     0.16800
H1504       H  0.93673197  0.15158953  0.80125503     0.16700
N1505       N  0.74274360  0.38239219  0.08941342    -0.36000
N1506       N  0.69954059  0.38620140  0.00419960    -0.56600
N1507       N  0.74327171  0.38240004  0.91724650    -0.36000
N1508       N  0.78649708  0.38379446  0.00283507    -0.56600
C1509       C  0.71988987  0.38915185  0.12014085     0.27600
C1510       C  0.76551909  0.38926665  0.11965119     0.27600
C1511       C  0.72042248  0.38974422  0.88688922     0.27600
C1512       C  0.76643839  0.38736912  0.88566055     0.27600
C1513       C  0.68372849  0.37966847  0.04938875     0.36200
C1514       C  0.68366442  0.38105819  0.95883627     0.36200
C1515       C  0.80195802  0.37805032  0.04890055     0.36200
C1516       C  0.80238666  0.37698381  0.95774213     0.36200
C1517       C  0.72824106  0.40079811  0.16992717    -0.21300
C1518       C  0.75697191  0.40094733  0.16955791    -0.21300
C1519       C  0.72928394  0.39975326  0.83565059    -0.21300
C1520       C  0.75807207  0.39826531  0.83489611    -0.21300
C1521       C  0.65790815  0.37015655  0.03249662    -0.22300
C1522       C  0.65783048  0.37111238  0.97543234    -0.22300
C1523       C  0.82762290  0.36734744  0.03282075    -0.22300
C1524       C  0.82785080  0.36656646  0.97556742    -0.22300
C1525       C  0.69176932  0.38363393  0.10568701    -0.17700
C1526       C  0.79372493  0.38343949  0.10518248    -0.17700
C1527       C  0.79481506  0.38142822  0.90078101    -0.17700
C1528       C  0.69177952  0.38591706  0.90265038    -0.17700
H1529       H  0.71501888  0.40843161  0.20314523     0.15200
H1530       H  0.77006702  0.40867590  0.20254612     0.15200
H1531       H  0.71636804  0.40741971  0.80207801     0.15200
H1532       H  0.77128599  0.40478393  0.80082147     0.15200
H1533       H  0.64091439  0.36290704  0.05838716     0.13500
H1534       H  0.64078284  0.36458986  0.94933446     0.13500
H1535       H  0.84442215  0.36046154  0.05947778     0.13500
H1536       H  0.84485767  0.35890130  0.95012665     0.13500
H1537       H  0.74279356  0.37085472  0.05280122     0.26800
H1538       H  0.74290995  0.37192898  0.95520841     0.26800
N1539       N  0.74429259  0.13123775  0.08806160    -0.36000
N1540       N  0.78725018  0.13310592  0.00078350    -0.56600
N1541       N  0.74371220  0.13584946  0.91679784    -0.36000
N1542       N  0.70076131  0.12893916  0.00333144    -0.56600
C1543       C  0.76752125  0.12443539  0.11746954     0.27600
C1544       C  0.72173374  0.12412861  0.11940540     0.27600
C1545       C  0.76674537  0.13072909  0.88550671     0.27600
C1546       C  0.72137849  0.12741126  0.88699655     0.27600
C1547       C  0.80311725  0.13767492  0.04637885     0.36200
C1548       C  0.80234540  0.14180958  0.95611179     0.36200
C1549       C  0.68487914  0.13382672  0.04922709     0.36200
C1550       C  0.68469362  0.13501214  0.95839943     0.36200
C1551       C  0.75948417  0.11262117  0.16777375    -0.21300
C1552       C  0.73071809  0.11258629  0.16909528    -0.21300
C1553       C  0.75896018  0.11839351  0.83594932    -0.21300
C1554       C  0.73037491  0.11630808  0.83690718    -0.21300
C1555       C  0.82824828  0.14951495  0.03059969    -0.22300
C1556       C  0.82769500  0.15228123  0.97364677    -0.22300
C1557       C  0.65869330  0.14309928  0.03315056    -0.22300
C1558       C  0.65858723  0.14386102  0.97593733    -0.22300
C1559       C  0.79567864  0.13032516  0.10183429    -0.17700
C1560       C  0.69328387  0.12891413  0.10534927    -0.17700
C1561       C  0.69303672  0.13159690  0.90185124    -0.17700
C1562       C  0.79443625  0.13805969  0.89963528    -0.17700
H1563       H  0.77291411  0.10487553  0.20044702     0.15200
H1564       H  0.71789246  0.10479549  0.20279835     0.15200
H1565       H  0.77239622  0.11138406  0.80255758     0.15200
H1566       H  0.71766273  0.10760819  0.80426745     0.15200
H1567       H  0.84515404  0.15580846  0.05730759     0.13500
H1568       H  0.84417680  0.16093511  0.94811867     0.13500
H1569       H  0.64147432  0.14911152  0.05973906     0.13500
H1570       H  0.64130160  0.15059055  0.95039012     0.13500
H1571       H  0.74379552  0.14277771  0.05130997     0.26800
H1572       H  0.74303610  0.14734561  0.95348829     0.26800
C1573       C  0.88616398  0.39771195  0.78429760     0.29000
C1574       C  0.85299526  0.36554264  0.72044133     0.30600
C1575       C  0.85718585  0.39004657  0.81076685    -0.05600
C1576       C  0.87845909  0.41031114  0.72722098    -0.06400
C1577       C  0.89828019  0.36831682  0.77009264    -0.06200
C1578       C  0.84034559  0.37379189  0.77739564    -0.05600
C1579       C  0.86210726  0.39370309  0.69442709    -0.06400
C1580       C  0.88183704  0.35201908  0.73573411    -0.06200
C1581       C  0.81566150  0.36867541  0.80655789    -0.31600
N1582       N  0.81673289  0.38115523  0.85749889     0.14900
C1583       C  0.84227477  0.39365511  0.86055780    -0.31600
H1584       H  0.84950759  0.40415978  0.89739630     0.16800
C1585       C  0.85835790  0.40788584  0.64445142    -0.30600
N1586       N  0.87140523  0.43318085  0.64644898     0.13600
C1587       C  0.88389232  0.43474857  0.69717089    -0.30600
C1588       C  0.89841941  0.32886244  0.72113997    -0.30900
N1589       N  0.92295864  0.32947119  0.74905034     0.14100
H1590       H  0.89419412  0.31309123  0.69030012     0.16700
C1591       C  0.92310914  0.35365301  0.77907175    -0.30900
H1592       H  0.94025580  0.36035844  0.80475886     0.16700
H1593       H  0.89613297  0.45235727  0.71126037     0.16700
H1594       H  0.79828082  0.35645668  0.79170094     0.16800
H1595       H  0.84650433  0.40053012  0.60933724     0.16700
C1596       C  0.85197551  0.14635338  0.28016326     0.30600
C1597       C  0.88539025  0.11290455  0.21766064     0.30600
C1598       C  0.84005470  0.13735766  0.22380717    -0.05600
C1599       C  0.88065907  0.15905882  0.26525186    -0.06400
C1600       C  0.86068135  0.11819802  0.30796905    -0.06200
C1601       C  0.85698749  0.12071919  0.19126678    -0.05600
C1602       C  0.89750948  0.14251127  0.23137077    -0.06400
C1603       C  0.87757306  0.10124572  0.27558738    -0.06200
C1604       C  0.84261352  0.11637240  0.14182517    -0.31600
N1605       N  0.81728724  0.12959939  0.14441662     0.14900
C1606       C  0.81576242  0.14252059  0.19457323    -0.31600
H1607       H  0.79831562  0.15516612  0.20857510     0.16800
C1608       C  0.92069694  0.15893327  0.21871171    -0.30600
N1609       N  0.91969747  0.18324305  0.24801182     0.13600
C1610       C  0.89516035  0.18354867  0.27658045    -0.30600
C1611       C  0.88410650  0.07753654  0.30670279    -0.30900
N1612       N  0.87170692  0.07948155  0.35748619     0.14100
H1613       H  0.89695768  0.06007406  0.29327101     0.16700
C1614       C  0.85800006  0.10458130  0.35907611    -0.30900
H1615       H  0.84720401  0.11229080  0.39545187     0.16700
H1616       H  0.88826720  0.20042898  0.30337071     0.16700
H1617       H  0.85003005  0.10437913  0.10662515     0.16800
H1618       H  0.93693598  0.15458365  0.18879499     0.16700
C1619       C  0.63858442  0.15128578  0.71875577     0.30600
C1620       C  0.60718752  0.11541929  0.77967700     0.30600
C1621       C  0.65068700  0.14275000  0.77653149    -0.05600
C1622       C  0.60882761  0.16162734  0.73266944    -0.06400
C1623       C  0.63332273  0.12188470  0.69109172    -0.06200
C1624       C  0.63410009  0.12507870  0.80732905    -0.05600
C1625       C  0.59239998  0.14337951  0.76296995    -0.06400
C1626       C  0.61679695  0.10394263  0.72262663    -0.06200
C1627       C  0.64738047  0.11933745  0.85716720    -0.31600
N1628       N  0.67230592  0.13261357  0.85765787     0.14900
C1629       C  0.67483179  0.14626941  0.80798029    -0.31600
H1630       H  0.69348053  0.15727081  0.79540608     0.16800
C1631       C  0.56625481  0.15630635  0.76766640    -0.30600
N1632       N  0.56686089  0.18216300  0.74299562     0.13600
C1633       C  0.59287414  0.18529057  0.72099747    -0.30600
C1634       C  0.61241977  0.07976380  0.69184127    -0.30900
N1635       N  0.62644261  0.08142394  0.64261186     0.14100
H1636       H  0.59962979  0.06216491  0.70441442     0.16700
C1637       C  0.63931360  0.10719547  0.64187854    -0.30900
H1638       H  0.65205084  0.11485022  0.60795499     0.16700
H1639       H  0.59980831  0.20359397  0.69807407     0.16700
H1640       H  0.63974659  0.10581109  0.89005286     0.16800
H1641       H  0.54797334  0.14768680  0.78763920     0.16700
C1642       C  0.63345918  0.36165419  0.28240784     0.30600
C1643       C  0.60237755  0.39841357  0.22327683     0.30600
C1644       C  0.64714878  0.37211810  0.22783261    -0.05600
C1645       C  0.60480968  0.35076670  0.26403837    -0.06400
C1646       C  0.62642752  0.38987527  0.31236090    -0.06200
C1647       C  0.63081176  0.39014612  0.19687872    -0.05600
C1648       C  0.58870480  0.36910611  0.23289035    -0.06400
C1649       C  0.61012187  0.40813537  0.28180622    -0.06200
C1650       C  0.64539626  0.39601494  0.14822489    -0.31600
N1651       N  0.67060258  0.38290399  0.14946056     0.14900
C1652       C  0.67207196  0.36869060  0.19865191    -0.31600
H1653       H  0.68986649  0.35634568  0.21176813     0.16800
C1654       C  0.56488678  0.35398022  0.21843970    -0.30600
N1655       N  0.56582033  0.32775962  0.24210422     0.13600
C1656       C  0.59032883  0.32584514  0.27000928    -0.30600
C1657       C  0.60643114  0.43244113  0.31234367    -0.30900
N1658       N  0.62065227  0.43010529  0.36087243     0.14100
H1659       H  0.59473777  0.45083174  0.29945536     0.16700
C1660       C  0.63336838  0.40435892  0.36082051    -0.30900
H1661       H  0.64744588  0.39723478  0.39293294     0.16700
H1662       H  0.59715827  0.30763694  0.29344268     0.16700
H1663       H  0.63821916  0.40888265  0.11398852     0.16800
H1664       H  0.54810809  0.36133908  0.19225571     0.16700
O1665       O  0.52186383  0.01992079  0.11002151    -0.79500
O1666       O  0.96822227  0.04911299  0.92903623    -0.79500
O1667       O  0.55466064  0.01657326  0.93715288    -0.79600
O1668       O  0.94814482  0.03370059  0.04154264    -0.79500
O1669       O  0.52209964  0.04755206  0.92497571    -0.79600
O1670       O  0.96725141  0.01675620  0.11476971    -0.79500
O1671       O  0.93475594  0.01962284  0.94568044    -0.79500
O1672       O  0.54340647  0.03291235  0.03576960    -0.79600
C1673       C  0.53863771  0.03605162  0.08608637     1.10200
C1674       C  0.94322690  0.04245748  0.92454114     1.10000
C1675       C  0.54698224  0.04055783  0.92038226     1.10200
C1676       C  0.95141005  0.03425105  0.09237390     1.10100
O1677       O  0.96764796  0.46310881  0.05928686    -0.79500
O1678       O  0.52098369  0.49010889  0.88159603    -0.79600
O1679       O  0.56591648  0.48139865  0.02620091    -0.79500
O1680       O  0.96405442  0.46608696  0.95583330    -0.79500
O1681       O  0.96567390  0.49321072  0.88304790    -0.79600
O1682       O  0.52568439  0.46603436  0.05659493    -0.79500
O1683       O  0.92668965  0.48132090  0.03502576    -0.79500
O1684       O  0.52348679  0.46480891  0.95646827    -0.79600
Co1685     Co  0.99555759  0.99318028  0.07688935     1.51500
Co1686     Co  0.99442653  0.01992315  0.90957495     1.51700
Co1687     Co  0.53276819  0.99862998  0.99859273     1.51600
Co1688     Co  0.95767150  0.99939794  0.00261836     1.51500
O1689       O  0.99499257  0.01241128  0.99309938    -1.41500
C1690       C  0.94103202  0.46400068  0.06331549     1.10100
C1691       C  0.52657365  0.46690009  0.90530852     1.10200
C1692       C  0.55186691  0.46896702  0.06367770     1.10100
C1693       C  0.95894542  0.47031223  0.90558292     1.10100
O1694       O  0.76634091  0.21238655  0.44065380    -0.79500
O1695       O  0.76173255  0.31844100  0.54918239    -0.79500
O1696       O  0.78207180  0.27282920  0.42956348    -0.79600
O1697       O  0.78504186  0.22821020  0.54679476    -0.79500
O1698       O  0.75703753  0.31166911  0.43955799    -0.79600
O1699       O  0.75265600  0.19777286  0.54729813    -0.79500
O1700       O  0.79050046  0.28290720  0.55276721    -0.79500
O1701       O  0.75761455  0.23504071  0.36167278    -0.79600
C1702       C  0.77012816  0.21573466  0.38803558     1.10200
C1703       C  0.78549575  0.30832741  0.56124898     1.10000
C1704       C  0.77885466  0.29884014  0.42277638     1.10200
C1705       C  0.77681339  0.20462097  0.56163261     1.10100
O1706       O  0.70285133  0.22972029  0.54317054    -0.79500
O1707       O  0.70117062  0.28695014  0.45947058    -0.79600
O1708       O  0.71072048  0.23083937  0.42120194    -0.79500
O1709       O  0.74181586  0.28724347  0.62396868    -0.79500
O1710       O  0.70748651  0.29352210  0.56542907    -0.79600
O1711       O  0.71616347  0.19029957  0.46502825    -0.79500
O1712       O  0.73254486  0.23204632  0.61309688    -0.79500
O1713       O  0.72646072  0.28055374  0.38705026    -0.79600
Co1714     Co  0.73333658  0.22284416  0.49219747     1.51500
Co1715     Co  0.73160428  0.30112411  0.50306886     1.51700
Co1716     Co  0.74793957  0.25146915  0.42975456     1.51600
Co1717     Co  0.76272047  0.25737401  0.58129671     1.51500
O1718       O  0.74437364  0.26186023  0.50879793    -1.41500
C1719       C  0.70815357  0.22690804  0.59418500     1.10100
C1720       C  0.70403097  0.28923171  0.40847337     1.10200
C1721       C  0.70397598  0.20510572  0.42875195     1.10100
C1722       C  0.71759706  0.29632069  0.61276295     1.10100
C1723       C  0.58755909  0.42132771  0.19215011     0.00500
C1724       C  0.60363196  0.44289733  0.16799803    -0.11400
C1725       C  0.59256645  0.45962679  0.12624447     0.02700
C1726       C  0.56449136  0.45589506  0.11199441     0.00400
C1727       C  0.54717382  0.43980622  0.14681975    -0.11400
C1728       C  0.55850389  0.42338307  0.18854670     0.02600
H1729       H  0.62532609  0.44546104  0.17912804     0.15600
H1730       H  0.52473137  0.43994706  0.14171998     0.15600
C1731       C  0.54006416  0.41312767  0.23127905     0.37200
C1732       C  0.61038537  0.47992584  0.09913812     0.37100
N1733       N  0.52459912  0.40626623  0.26562739    -0.43100
N1734       N  0.62468667  0.99623819  0.07767482    -0.43100
C1735       C  0.64912296  0.33955350  0.31426353     0.00500
C1736       C  0.64656955  0.33926891  0.37201337    -0.11400
C1737       C  0.66348207  0.32222022  0.40391148     0.02700
C1738       C  0.68258326  0.30389284  0.37717201     0.00400
C1739       C  0.68123825  0.30024110  0.31976645    -0.11400
C1740       C  0.66342529  0.31698658  0.28829466     0.02600
H1741       H  0.63136403  0.35240888  0.39275269     0.15600
H1742       H  0.69391935  0.28428038  0.29969181     0.15600
C1743       C  0.65918862  0.30941691  0.23094668     0.37200
C1744       C  0.66128401  0.32532310  0.46355674     0.37100
N1745       N  0.65586574  0.30314815  0.18508135    -0.43100
N1746       N  0.65938268  0.32794364  0.51117884    -0.43100
C1747       C  0.68700559  0.21314218  0.62903959     0.00500
C1748       C  0.66453999  0.19985492  0.60271032    -0.11400
C1749       C  0.64814998  0.18039408  0.63114154     0.02700
C1750       C  0.65441913  0.17371668  0.68680587     0.00400
C1751       C  0.67231502  0.19208341  0.71525818    -0.11400
C1752       C  0.68970181  0.21050763  0.68683286     0.02600
H1753       H  0.66026510  0.20384474  0.55923132     0.15600
H1754       H  0.67230147  0.19307784  0.75988106     0.15600
C1755       C  0.70978246  0.22634178  0.71825278     0.37200
C1756       C  0.62389268  0.16948708  0.60351146     0.37100
N1757       N  0.72587721  0.23891218  0.74362005    -0.43100
N1758       N  0.60407683  0.16148951  0.58157829    -0.43100
C1759       C  0.56524432  0.05999860  0.89221931     0.00500
C1760       C  0.58794955  0.04971609  0.86231580    -0.11400
C1761       C  0.60258667  0.06757647  0.82717951     0.02700
C1762       C  0.59246504  0.09530115  0.81765423     0.00400
C1763       C  0.57287409  0.10626555  0.85498305    -0.11400
C1764       C  0.55892443  0.08896919  0.89155558     0.02600
H1765       H  0.59435441  0.02792193  0.86669870     0.15600
H1766       H  0.56945690  0.12859206  0.85849743     0.15600
C1767       C  0.53905496  0.10182368  0.92919952     0.37200
C1768       C  0.62971659  0.05815176  0.80888494     0.37100
N1769       N  0.52323648  0.11225393  0.95918986    -0.43100
N1770       N  0.65195753  0.05070981  0.79728943    -0.43100
C1771       C  0.90282722  0.09182717  0.18573516     0.00500
C1772       C  0.93161043  0.09589855  0.17911523    -0.11400
C1773       C  0.94752722  0.07816848  0.14624233     0.02700
C1774       C  0.93546598  0.05379733  0.12531663     0.00400
C1775       C  0.90765568  0.04750339  0.13669246    -0.11400
C1776       C  0.89124376  0.06614396  0.16710306     0.02600
H1777       H  0.94249587  0.11177552  0.20149235     0.15600
H1778       H  0.89883347  0.02796415  0.12189650     0.15600
C1779       C  0.86323779  0.05751456  0.18111821     0.37200
C1780       C  0.97559228  0.08637045  0.13221568     0.37100
N1781       N  0.84085869  0.05059561  0.19263869    -0.43100
N1782       N  0.99761433  0.09400009  0.11994911    -0.43100
C1783       C  0.83152837  0.16525331  0.30960931     0.00500
C1784       C  0.81266973  0.15324810  0.34741198    -0.11400
C1785       C  0.79248672  0.16936380  0.37342304     0.02700
C1786       C  0.79011545  0.19797029  0.35986968     0.00400
C1787       C  0.80645417  0.20950231  0.31759610    -0.11400
C1788       C  0.82619320  0.19303048  0.29058337     0.02600
H1789       H  0.81181012  0.13085106  0.35359950     0.15600
H1790       H  0.80309387  0.23107598  0.30430635     0.15600
C1791       C  0.83663455  0.20347396  0.23819527     0.37200
C1792       C  0.77309112  0.15541308  0.41022916     0.37100
N1793       N  0.84354499  0.21132735  0.19479336    -0.43100
N1794       N  0.75753692  0.14394550  0.43917197    -0.43100
C1795       C  0.83302246  0.34984227  0.68403355     0.00500
C1796       C  0.83840466  0.32191205  0.67076736    -0.11400
C1797       C  0.82651729  0.30976050  0.62475333     0.02700
C1798       C  0.80433751  0.32376835  0.59750430     0.00400
C1799       C  0.79607101  0.35048201  0.61581681    -0.11400
C1800       C  0.80984403  0.36343143  0.65935804     0.02600
H1801       H  0.85134315  0.30903407  0.69679267     0.15600
H1802       H  0.77842745  0.36106543  0.59715347     0.15600
C1803       C  0.79956514  0.39043925  0.67798257     0.37200
C1804       C  0.83811531  0.28312011  0.60706744     0.37100
N1805       N  0.79154196  0.41217127  0.69258419    -0.43100
N1806       N  0.84802113  0.26212534  0.59277993    -0.43100
C1807       C  0.90572806  0.41681776  0.81480949     0.00500
C1808       C  0.89492179  0.43457477  0.85543036    -0.11400
C1809       C  0.91211540  0.45141118  0.88658265     0.02700
C1810       C  0.94094544  0.45140337  0.87595845     0.00400
C1811       C  0.95150080  0.43705261  0.83008575    -0.11400
C1812       C  0.93380979  0.42079449  0.79778447     0.02600
H1813       H  0.87279060  0.43729210  0.86026945     0.15600
H1814       H  0.97311392  0.43975253  0.81793160     0.15600
C1815       C  0.94374309  0.41256342  0.74361114     0.37200
C1816       C  0.89865317  0.46943770  0.92642561     0.37100
N1817       N  0.95132802  0.40739405  0.69915902    -0.43100
N1818       N  0.88593677  0.48306039  0.95710639    -0.43100
C1819       C  0.89781500  0.09527202  0.81654898     0.00500
C1820       C  0.88341103  0.07797533  0.85461793    -0.11400
C1821       C  0.89763031  0.06168672  0.89285059     0.02700
C1822       C  0.92646268  0.05909187  0.88716181     0.00400
C1823       C  0.94020356  0.07151173  0.84170228    -0.11400
C1824       C  0.92596625  0.08905538  0.80558795     0.02600
H1825       H  0.86098400  0.07668256  0.85462814     0.15600
H1826       H  0.96206980  0.06711562  0.83376104     0.15600
C1827       C  0.93969087  0.09710802  0.75456755     0.37200
C1828       C  0.88237426  0.04978698  0.93900671     0.37100
N1829       N  0.95051772  0.10248765  0.71289699    -0.43100
N1830       N  0.86987841  0.04108311  0.97644078    -0.43100
C1831       C  0.82881949  0.16422600  0.67999707     0.00500
C1832       C  0.80803178  0.14846275  0.65290611    -0.11400
C1833       C  0.79034640  0.16088147  0.61426189     0.02700
C1834       C  0.79248382  0.18982642  0.60462627     0.00400
C1835       C  0.80898770  0.20616760  0.64008819    -0.11400
C1836       C  0.82616970  0.19363073  0.67937759     0.02600
H1837       H  0.80573135  0.12621624  0.66128121     0.15600
H1838       H  0.80762935  0.22890846  0.63859916     0.15600
C1839       C  0.83699154  0.21107921  0.72292870     0.37200
C1840       C  0.77062241  0.14349567  0.58535250     0.37100
N1841       N  0.84462062  0.22538529  0.75840219    -0.43100
N1842       N  0.75470528  0.12941402  0.56281918    -0.43100
C1843       C  0.54065114  0.44421005  0.87531086     0.00500
C1844       C  0.53893928  0.44371072  0.81746042    -0.11400
C1845       C  0.55682176  0.42657626  0.78695185     0.02700
C1846       C  0.57947489  0.41314555  0.81409978     0.00400
C1847       C  0.57798442  0.40996723  0.87176661    -0.11400
C1848       C  0.55834827  0.42470560  0.90256815     0.02600
H1849       H  0.52348275  0.45646081  0.79620970     0.15600
H1850       H  0.59154891  0.39523591  0.89295772     0.15600
C1851       C  0.55685556  0.41844822  0.96120743     0.37200
C1852       C  0.55006685  0.42165803  0.72942522     0.37100
N1853       N  0.55592698  0.41206972  0.00757978    -0.43100
N1854       N  0.54449593  0.41749659  0.68349365    -0.43100
C1855       C  0.65965316  0.34652457  0.69767794     0.00500
C1856       C  0.67899025  0.35889233  0.66157009    -0.11400
C1857       C  0.69929593  0.34301498  0.63563708     0.02700
C1858       C  0.70236095  0.31450590  0.64979679     0.00400
C1859       C  0.68604962  0.30276797  0.69173855    -0.11400
C1860       C  0.66526882  0.31882377  0.71713808     0.02600
H1861       H  0.67941932  0.38120443  0.65474990     0.15600
H1862       H  0.68899681  0.28098487  0.70353886     0.15600
C1863       C  0.65243381  0.30741645  0.76652608     0.37200
C1864       C  0.71543719  0.35644855  0.59235489     0.37100
N1865       N  0.64312754  0.29857751  0.80734279    -0.43100
N1866       N  0.72743370  0.36797189  0.55733396    -0.43100
C1867       C  0.83510473  0.34397830  0.32190693     0.00500
C1868       C  0.81563813  0.32602776  0.29753736    -0.11400
C1869       C  0.79675449  0.31138560  0.32999270     0.02700
C1870       C  0.79860880  0.31326566  0.38800983     0.00400
C1871       C  0.82118705  0.32660209  0.41251951    -0.11400
C1872       C  0.84035306  0.34083740  0.37937115     0.02600
H1873       H  0.81542830  0.32276480  0.25324246     0.15600
H1874       H  0.82424877  0.32513575  0.45705531     0.15600
C1875       C  0.86652428  0.34851355  0.40399573     0.37200
C1876       C  0.77581169  0.29481721  0.30247222     0.37100
N1877       N  0.88780952  0.35337161  0.42400378    -0.43100
N1878       N  0.75928838  0.28180931  0.27914321    -0.43100
C1879       C  0.92821123  0.44504523  0.10157842     0.00500
C1880       C  0.93505488  0.44816357  0.15763285    -0.11400
C1881       C  0.92314144  0.43066624  0.19718672     0.02700
C1882       C  0.90225055  0.41199010  0.18030296     0.00400
C1883       C  0.90087633  0.40483333  0.12374096    -0.11400
C1884       C  0.91278153  0.42197200  0.08389770     0.02600
H1885       H  0.95018469  0.46376502  0.17016481     0.15600
H1886       H  0.88975656  0.38629856  0.11042440     0.15600
C1887       C  0.90970812  0.41465455  0.02619013     0.37200
C1888       C  0.93569690  0.42921682  0.25144230     0.37100
N1889       N  0.90699504  0.40775070  0.98056109    -0.43100
N1890       N  0.94622328  0.42771290  0.29449743    -0.43100
C1891       C  0.64803527  0.16589906  0.32065178     0.00500
C1892       C  0.64523113  0.16151970  0.37805835    -0.11400
C1893       C  0.66418152  0.17289355  0.41424465     0.02700
C1894       C  0.68234205  0.19356473  0.39436215     0.00400
C1895       C  0.67995489  0.20348100  0.33948048    -0.11400
C1896       C  0.66263770  0.18980025  0.30224896     0.02600
H1897       H  0.62920072  0.14802914  0.39480988     0.15600
H1898       H  0.69249113  0.22097966  0.32500413     0.15600
C1899       C  0.65912522  0.20150704  0.24729605     0.37200
C1900       C  0.66562682  0.16138682  0.46968923     0.37100
N1901       N  0.65608349  0.21108626  0.20347838    -0.43100
N1902       N  0.66725707  0.15105297  0.51309853    -0.43100
C1903       C  0.58277100  0.09528097  0.18305816     0.00500
C1904       C  0.58660661  0.09484748  0.12564155    -0.11400
C1905       C  0.57377738  0.07484246  0.09350973     0.02700
C1906       C  0.55296348  0.05777163  0.11750278     0.00400
C1907       C  0.54532518  0.06193337  0.17322539    -0.11400
C1908       C  0.55960534  0.08106078  0.20582505     0.02600
H1909       H  0.59977678  0.11000762  0.10519028     0.15600
H1910       H  0.52814323  0.05033758  0.19145078     0.15600
C1911       C  0.54908169  0.08666892  0.26097037     0.37200
C1912       C  0.58491284  0.07114724  0.03836152     0.37100
N1913       N  0.54042504  0.09124446  0.30494119    -0.43100
N1914       N  0.59565477  0.06853200  0.99566209    -0.43100
C1915       C  0.60200031  0.61257707  0.21788064     0.30600
C1916       C  0.63321477  0.64634881  0.28215915     0.30600
C1917       C  0.63095084  0.62099558  0.19272430    -0.05600
C1918       C  0.58863926  0.64095925  0.23327682    -0.06400
C1919       C  0.61086486  0.59945750  0.27425151    -0.06200
C1920       C  0.64680782  0.63871745  0.22554910    -0.05600
C1921       C  0.60441416  0.65791885  0.26648464    -0.06400
C1922       C  0.62733580  0.61659767  0.30632130    -0.06200
C1923       C  0.67209359  0.64278743  0.19793681    -0.31600
N1924       N  0.67205410  0.62825809  0.14920844     0.14900
C1925       C  0.64765621  0.61389961  0.14728113    -0.31600
H1926       H  0.64302205  0.59881534  0.11523121     0.16800
C1927       C  0.58947715  0.68257176  0.27483229    -0.30600
N1928       N  0.56498614  0.68127025  0.24651976     0.13600
C1929       C  0.56440390  0.65575197  0.22081624    -0.30600
C1930       C  0.63624887  0.60055887  0.35128415    -0.30900
N1931       N  0.62357127  0.57518219  0.35081023     0.14100
H1932       H  0.65104843  0.60668182  0.38267247     0.16700
C1933       C  0.60869841  0.57386337  0.30265611    -0.30900
H1934       H  0.59702901  0.55570130  0.28944064     0.16700
H1935       H  0.54773781  0.64857142  0.19436046     0.16700
H1936       H  0.68932376  0.65535597  0.21226289     0.16800
H1937       H  0.59616530  0.70034300  0.29920741     0.16700
N1938       N  0.99244084  0.71168481  0.24289948    -0.36000
N1939       N  0.53588909  0.75478330  0.24349523    -0.56600
N1940       N  0.99292214  0.79889345  0.24104895    -0.36000
N1941       N  0.94970139  0.75575045  0.25143281    -0.56600
C1942       C  0.51525800  0.69574847  0.25466226     0.27600
C1943       C  0.96954357  0.69643339  0.25666077     0.27600
C1944       C  0.51612997  0.81384866  0.25339581     0.27600
C1945       C  0.97043315  0.81429451  0.25759260     0.27600
C1946       C  0.55162827  0.73153647  0.23307754     0.36200
C1947       C  0.55186628  0.77751077  0.23103225     0.36200
C1948       C  0.93368503  0.73317924  0.23950191     0.36200
C1949       C  0.93393079  0.77879714  0.24007498     0.36200
C1950       C  0.50665346  0.67014286  0.27631760    -0.21300
C1951       C  0.97791295  0.67054931  0.27740448    -0.21300
C1952       C  0.50824035  0.83870544  0.27876044    -0.21300
C1953       C  0.97949583  0.83915146  0.28096013    -0.21300
C1954       C  0.57754936  0.73960535  0.21334266    -0.22300
C1955       C  0.57768647  0.76856644  0.21196560    -0.22300
C1956       C  0.90808069  0.74197285  0.22007377    -0.22300
C1957       C  0.90810918  0.77079056  0.22051773    -0.22300
C1958       C  0.54355868  0.70319626  0.24417151    -0.17700
C1959       C  0.94131008  0.70469551  0.24817762    -0.17700
C1960       C  0.94196081  0.80694288  0.24999481    -0.17700
C1961       C  0.54418789  0.80612649  0.24077943    -0.17700
H1962       H  0.51965650  0.65290492  0.29027509     0.15200
H1963       H  0.96471746  0.65369797  0.29215673     0.15200
H1964       H  0.52187370  0.85451393  0.29542160     0.15200
H1965       H  0.96676483  0.85569133  0.29868155     0.15200
H1966       H  0.59463083  0.72607843  0.20095736     0.13500
H1967       H  0.59493271  0.78150082  0.19851501     0.13500
H1968       H  0.89144974  0.72891982  0.20563516     0.13500
H1969       H  0.89119519  0.78422841  0.20695475     0.13500
H1970       H  0.99237898  0.73072385  0.22152396     0.26800
H1971       H  0.99236002  0.78050744  0.21779939     0.26800
C1972       C  0.85150619  0.86373007  0.28538441     0.30600
C1973       C  0.88365790  0.89660056  0.21994069     0.30600
C1974       C  0.83817878  0.87231863  0.22836979    -0.05600
C1975       C  0.85889129  0.89292356  0.31034835    -0.06400
C1976       C  0.88011709  0.85136971  0.26925894    -0.06200
C1977       C  0.85477093  0.88926551  0.19555213    -0.05600
C1978       C  0.87542715  0.90987452  0.27674050    -0.06400
C1979       C  0.89629889  0.86811241  0.23576202    -0.06200
C1980       C  0.83971209  0.89610813  0.14796588    -0.31600
N1981       N  0.81469369  0.88300107  0.14929117     0.14900
C1982       C  0.81313560  0.86926710  0.19911038    -0.31600
H1983       H  0.79472703  0.85826162  0.21299992     0.16800
C1984       C  0.87912911  0.93499168  0.30537166    -0.30600
N1985       N  0.86632592  0.93353712  0.35602261     0.13600
C1986       C  0.85334846  0.90808968  0.35862971    -0.30600
C1987       C  0.92102214  0.85387747  0.22552101    -0.30900
N1988       N  0.92043944  0.82868866  0.25246438     0.14100
H1989       H  0.93807143  0.86122446  0.19983100     0.16700
C1990       C  0.89541739  0.82708834  0.27956208    -0.30900
H1991       H  0.88873886  0.80947850  0.30480671     0.16700
H1992       H  0.84073521  0.90110754  0.39330793     0.16700
H1993       H  0.84626922  0.90990554  0.11464074     0.16800
H1994       H  0.89039657  0.95316794  0.29055431     0.16700
N1995       N  0.62313719  0.50358512  0.41586802    -0.36000
N1996       N  0.62755327  0.54926759  0.49866771    -0.56600
N1997       N  0.62258937  0.50734787  0.58733593    -0.36000
N1998       N  0.62348137  0.96163995  0.50399400    -0.56600
C1999       C  0.62972813  0.52591002  0.38325111     0.27600
C2000       C  0.62896136  0.97989504  0.38664006     0.27600
C2001       C  0.63057258  0.53053039  0.61621416     0.27600
C2002       C  0.62805876  0.98428306  0.61926997     0.27600
C2003       C  0.62077019  0.56401034  0.45205126     0.36200
C2004       C  0.62238820  0.56640428  0.54280654     0.36200
C2005       C  0.61739538  0.94498390  0.45997137     0.36200
C2006       C  0.61644725  0.94703605  0.55044438     0.36200
C2007       C  0.64029246  0.51632980  0.33311922    -0.21300
C2008       C  0.63989274  0.98735208  0.33530529    -0.21300
C2009       C  0.64151237  0.52192228  0.66653812    -0.21300
C2010       C  0.63980122  0.99296340  0.66874725    -0.21300
C2011       C  0.61106922  0.59042654  0.46704491    -0.22300
C2012       C  0.61224585  0.59193040  0.52409251    -0.22300
C2013       C  0.60629156  0.91984520  0.47857467    -0.22300
C2014       C  0.60555336  0.92119211  0.53566907    -0.22300
C2015       C  0.62452552  0.55459929  0.39602896    -0.17700
C2016       C  0.62263149  0.95187948  0.40331976    -0.17700
C2017       C  0.62182565  0.95569867  0.60594015    -0.17700
C2018       C  0.62688383  0.55930435  0.59974515    -0.17700
H2019       H  0.64737231  0.52889847  0.29832841     0.15200
H2020       H  0.64661618  0.97339555  0.30246590     0.15200
H2021       H  0.65039323  0.53518839  0.69785713     0.15200
H2022       H  0.64683189  0.97981220  0.70270609     0.15200
H2023       H  0.60336936  0.60685268  0.43993594     0.13500
H2024       H  0.60548441  0.60948047  0.54899758     0.13500
H2025       H  0.59921063  0.90241291  0.45372591     0.13500
H2026       H  0.59781377  0.90491525  0.56309133     0.13500
H2027       H  0.61211527  0.50464149  0.45319963     0.26800
H2028       H  0.61146554  0.50736390  0.55025166     0.26800
N2029       N  0.87108438  0.50628269  0.41586491    -0.36000
N2030       N  0.87026677  0.54995973  0.50213378    -0.56600
N2031       N  0.87219684  0.50636140  0.58787134    -0.36000
N2032       N  0.86745850  0.96271709  0.50155804    -0.56600
C2033       C  0.86502077  0.52978541  0.38599354     0.27600
C2034       C  0.86298816  0.98374099  0.38541245     0.27600
C2035       C  0.86519400  0.52935334  0.61837271     0.27600
C2036       C  0.86554748  0.98322922  0.61831144     0.27600
C2037       C  0.87673802  0.56575185  0.45684550     0.36200
C2038       C  0.87595220  0.56583435  0.54740093     0.36200
C2039       C  0.87278404  0.94686520  0.45575653     0.36200
C2040       C  0.87473272  0.94688880  0.54644746     0.36200
C2041       C  0.85266513  0.52204883  0.33649656    -0.21300
C2042       C  0.85142894  0.99310252  0.33607545    -0.21300
C2043       C  0.85365942  0.52060810  0.66838328    -0.21300
C2044       C  0.85397768  0.99161603  0.66841649    -0.21300
C2045       C  0.88691240  0.59156192  0.47352890    -0.22300
C2046       C  0.88638288  0.59162841  0.53070909    -0.22300
C2047       C  0.88375072  0.92122529  0.47174309    -0.22300
C2048       C  0.88491757  0.92112027  0.52886903    -0.22300
C2049       C  0.87163021  0.55793662  0.40081095    -0.17700
C2050       C  0.86720803  0.95496693  0.39974429    -0.17700
C2051       C  0.87095078  0.95481589  0.60310710    -0.17700
C2052       C  0.87021839  0.55792758  0.60335996    -0.17700
H2053       H  0.84506461  0.53583148  0.30410178     0.15200
H2054       H  0.84281949  0.98043910  0.30319169     0.15200
H2055       H  0.84562867  0.53367140  0.70148711     0.15200
H2056       H  0.84625062  0.97827474  0.70148769     0.15200
H2057       H  0.89398377  0.60863994  0.44732885     0.13500
H2058       H  0.89307145  0.60871800  0.55689076     0.13500
H2059       H  0.89113757  0.90478648  0.44479688     0.13500
H2060       H  0.89292550  0.90417116  0.55437000     0.13500
H2061       H  0.88272610  0.50561604  0.45221255     0.26800
H2062       H  0.88346302  0.50633202  0.55085157     0.26800
C2063       C  0.60161671  0.89712234  0.78295305     0.30600
C2064       C  0.63766398  0.86490375  0.72420188     0.30600
C2065       C  0.62969530  0.89031481  0.81264410    -0.05600
C2066       C  0.59062406  0.86809147  0.76529078    -0.06400
C2067       C  0.61210322  0.91053250  0.72810491    -0.06200
C2068       C  0.64758271  0.87361508  0.78215954    -0.05600
C2069       C  0.60865320  0.85162250  0.73467755    -0.06400
C2070       C  0.62982388  0.89376979  0.69671640    -0.06200
C2071       C  0.67213201  0.87055891  0.81154532    -0.31600
N2072       N  0.67033455  0.88532727  0.85951442     0.14900
C2073       C  0.64458500  0.89793480  0.86010645    -0.31600
H2074       H  0.63743610  0.91202354  0.89234765     0.16800
C2075       C  0.59410535  0.82716398  0.72162596    -0.30600
N2076       N  0.56797867  0.82825898  0.74463131     0.13600
C2077       C  0.56594586  0.85332505  0.77157544    -0.30600
C2078       C  0.63468878  0.90868101  0.64757511    -0.30900
N2079       N  0.62205537  0.93438370  0.64992720     0.14100
H2080       H  0.64591117  0.90126394  0.61147476     0.16700
C2081       C  0.60860887  0.93581777  0.69964249    -0.30900
H2082       H  0.59648610  0.95372693  0.71341078     0.16700
H2083       H  0.54777315  0.86040772  0.79439366     0.16700
H2084       H  0.69017134  0.85848619  0.79860753     0.16800
H2085       H  0.60199843  0.80985986  0.69705917     0.16700
N2086       N  0.53765860  0.75526036  0.73899217    -0.36000
N2087       N  0.99538484  0.79911944  0.74566281    -0.56600
N2088       N  0.95140396  0.75582440  0.74252185    -0.36000
N2089       N  0.99370960  0.71160610  0.74697320    -0.56600
C2090       C  0.55306576  0.77807989  0.75318775     0.27600
C2091       C  0.55215408  0.73196082  0.75467547     0.27600
C2092       C  0.93673605  0.77916682  0.75736261     0.27600
C2093       C  0.93575023  0.73299681  0.75617897     0.27600
C2094       C  0.51804611  0.81485848  0.73231344     0.36200
C2095       C  0.97258134  0.81519902  0.73488220     0.36200
C2096       C  0.51644006  0.69568909  0.73398748     0.36200
C2097       C  0.97078161  0.69600206  0.73509905     0.36200
C2098       C  0.57720511  0.76913523  0.77895471    -0.21300
C2099       C  0.57669140  0.74017245  0.77998149    -0.21300
C2100       C  0.91169510  0.77098904  0.78117624    -0.21300
C2101       C  0.91117683  0.74197349  0.78062857    -0.21300
C2102       C  0.50951868  0.84077939  0.71214785    -0.22300
C2103       C  0.98081758  0.84088103  0.71370728    -0.22300
C2104       C  0.50781465  0.67005070  0.71326771    -0.22300
C2105       C  0.97904978  0.67030031  0.71403356    -0.22300
C2106       C  0.54620796  0.80672140  0.74208288    -0.17700
C2107       C  0.54475171  0.70353354  0.74343883    -0.17700
C2108       C  0.94254303  0.70434876  0.74494889    -0.17700
C2109       C  0.94453590  0.80764748  0.74704785    -0.17700
H2110       H  0.59318715  0.78216999  0.79643930     0.15200
H2111       H  0.59254038  0.72673346  0.79794206     0.15200
H2112       H  0.89549493  0.78451219  0.79764247     0.15200
H2113       H  0.89482294  0.72888969  0.79736104     0.15200
H2114       H  0.52254280  0.85779360  0.69755679     0.13500
H2115       H  0.96742797  0.85767330  0.69994039     0.13500
H2116       H  0.52081761  0.65303154  0.69835962     0.13500
H2117       H  0.96569828  0.65376262  0.69943705     0.13500
H2118       H  0.51965919  0.75543687  0.71496646     0.26800
H2119       H  0.96973646  0.75559841  0.71927287     0.26800
C2120       C  0.84966947  0.64867173  0.71559863     0.30600
C2121       C  0.88167012  0.61595190  0.78198308     0.30600
C2122       C  0.85784350  0.61945541  0.69194448    -0.05600
C2123       C  0.87907705  0.66120161  0.72966749    -0.06400
C2124       C  0.83724633  0.64214509  0.77331180    -0.06200
C2125       C  0.87366206  0.60282663  0.72629665    -0.05600
C2126       C  0.89521982  0.64437022  0.76479451    -0.06400
C2127       C  0.85377943  0.62605244  0.80750849    -0.06200
C2128       C  0.88013602  0.57837290  0.69768239    -0.31600
N2129       N  0.86866587  0.57961786  0.64612045     0.14900
C2130       C  0.85532482  0.60489569  0.64212068    -0.31600
H2131       H  0.84474609  0.61225426  0.60521545     0.16800
C2132       C  0.92002376  0.65861215  0.77448547    -0.30600
N2133       N  0.92022827  0.68321460  0.74515686     0.13600
C2134       C  0.89542985  0.68473791  0.71728759    -0.30600
C2135       C  0.84058691  0.62507037  0.85890161    -0.30900
N2136       N  0.81566767  0.63849455  0.85605052     0.14100
H2137       H  0.84838085  0.61525359  0.89630473     0.16700
C2138       C  0.81359906  0.64948240  0.80373210    -0.30900
H2139       H  0.79619332  0.66187888  0.78880123     0.16700
H2140       H  0.88981963  0.70174848  0.68954018     0.16700
H2141       H  0.89285081  0.56117647  0.71291223     0.16800
H2142       H  0.93673196  0.65158951  0.80125489     0.16700
N2143       N  0.74274359  0.88239218  0.08941343    -0.36000
N2144       N  0.69954058  0.88620139  0.00419963    -0.56600
N2145       N  0.74327173  0.88240003  0.91724649    -0.36000
N2146       N  0.78649705  0.88379445  0.00283509    -0.56600
C2147       C  0.71988984  0.88915184  0.12014084     0.27600
C2148       C  0.76551907  0.88926665  0.11965123     0.27600
C2149       C  0.72042251  0.88974421  0.88688923     0.27600
C2150       C  0.76643841  0.88736913  0.88566051     0.27600
C2151       C  0.68372846  0.87966847  0.04938875     0.36200
C2152       C  0.68366444  0.88105817  0.95883627     0.36200
C2153       C  0.80195798  0.87805032  0.04890057     0.36200
C2154       C  0.80238662  0.87698380  0.95774215     0.36200
C2155       C  0.72824103  0.90079810  0.16992716    -0.21300
C2156       C  0.75697188  0.90094734  0.16955796    -0.21300
C2157       C  0.72928396  0.89975326  0.83565058    -0.21300
C2158       C  0.75807209  0.89826531  0.83489607    -0.21300
C2159       C  0.65790812  0.87015656  0.03249659    -0.22300
C2160       C  0.65783050  0.87111238  0.97543231    -0.22300
C2161       C  0.82762286  0.86734744  0.03282076    -0.22300
C2162       C  0.82785075  0.86656645  0.97556744    -0.22300
C2163       C  0.69176929  0.88363392  0.10568700    -0.17700
C2164       C  0.79372491  0.88343949  0.10518252    -0.17700
C2165       C  0.79481504  0.88142821  0.90078102    -0.17700
C2166       C  0.69177955  0.88591704  0.90265038    -0.17700
H2167       H  0.71501883  0.90843160  0.20314518     0.15200
H2168       H  0.77006696  0.90867592  0.20254621     0.15200
H2169       H  0.71636805  0.90741970  0.80207802     0.15200
H2170       H  0.77128600  0.90478393  0.80082140     0.15200
H2171       H  0.64091434  0.86290705  0.05838708     0.13500
H2172       H  0.64078287  0.86458988  0.94933437     0.13500
H2173       H  0.84442211  0.86046153  0.05947778     0.13500
H2174       H  0.84485762  0.85890128  0.95012667     0.13500
H2175       H  0.74279354  0.87085471  0.05280124     0.26800
H2176       H  0.74291001  0.87192897  0.95520840     0.26800
N2177       N  0.74429263  0.63123774  0.08806160    -0.36000
N2178       N  0.78725025  0.63310592  0.00078349    -0.56600
N2179       N  0.74371217  0.63584947  0.91679786    -0.36000
N2180       N  0.70076132  0.62893919  0.00333144    -0.56600
C2181       C  0.76752129  0.62443539  0.11746949     0.27600
C2182       C  0.72173378  0.62412859  0.11940543     0.27600
C2183       C  0.76674534  0.63072910  0.88550675     0.27600
C2184       C  0.72137846  0.62741126  0.88699656     0.27600
C2185       C  0.80311731  0.63767493  0.04637884     0.36200
C2186       C  0.80234546  0.64180956  0.95611178     0.36200
C2187       C  0.68487918  0.63382672  0.04922712     0.36200
C2188       C  0.68469362  0.63501213  0.95839945     0.36200
C2189       C  0.75948423  0.61262117  0.16777370    -0.21300
C2190       C  0.73071816  0.61258628  0.16909533    -0.21300
C2191       C  0.75896013  0.61839351  0.83594937    -0.21300
C2192       C  0.73037486  0.61630808  0.83690720    -0.21300
C2193       C  0.82824834  0.64951494  0.03059968    -0.22300
C2194       C  0.82769508  0.65228119  0.97364676    -0.22300
C2195       C  0.65869332  0.64309926  0.03315059    -0.22300
C2196       C  0.65858723  0.64386099  0.97593737    -0.22300
C2197       C  0.79567868  0.63032518  0.10183427    -0.17700
C2198       C  0.69328390  0.62891408  0.10534931    -0.17700
C2199       C  0.69303669  0.63159689  0.90185127    -0.17700
C2200       C  0.79443625  0.63805971  0.89963529    -0.17700
H2201       H  0.77291423  0.60487556  0.20044690     0.15200
H2202       H  0.71789257  0.60479546  0.20279845     0.15200
H2203       H  0.77239616  0.61138404  0.80255764     0.15200
H2204       H  0.71766269  0.60760817  0.80426746     0.15200
H2205       H  0.84515410  0.65580846  0.05730759     0.13500
H2206       H  0.84417689  0.66093511  0.94811874     0.13500
H2207       H  0.64147436  0.64911147  0.05973912     0.13500
H2208       H  0.64130158  0.65059051  0.95039019     0.13500
H2209       H  0.74379556  0.64277770  0.05130995     0.26800
H2210       H  0.74303607  0.64734561  0.95348831     0.26800
C2211       C  0.88616397  0.89771195  0.78429761     0.29000
C2212       C  0.85299526  0.86554264  0.72044136     0.30600
C2213       C  0.85718584  0.89004657  0.81076689    -0.05600
C2214       C  0.87845905  0.91031115  0.72722099    -0.06400
C2215       C  0.89828018  0.86831683  0.77009263    -0.06200
C2216       C  0.84034558  0.87379188  0.77739569    -0.05600
C2217       C  0.86210723  0.89370309  0.69442710    -0.06400
C2218       C  0.88183704  0.85201909  0.73573409    -0.06200
C2219       C  0.81566148  0.86867538  0.80655792    -0.31600
N2220       N  0.81673287  0.88115519  0.85749890     0.14900
C2221       C  0.84227475  0.89365509  0.86055783    -0.31600
H2222       H  0.84950757  0.90415976  0.89739633     0.16800
C2223       C  0.85835786  0.90788585  0.64445141    -0.30600
N2224       N  0.87140518  0.93318086  0.64644899     0.13600
C2225       C  0.88389228  0.93474857  0.69717089    -0.30600
C2226       C  0.89841941  0.82886244  0.72113997    -0.30900
N2227       N  0.92295864  0.82947119  0.74905035     0.14100
H2228       H  0.89419414  0.81309121  0.69030014     0.16700
C2229       C  0.92310913  0.85365302  0.77907176    -0.30900
H2230       H  0.94025577  0.86035845  0.80475890     0.16700
H2231       H  0.89613293  0.95235726  0.71126039     0.16700
H2232       H  0.79828082  0.85645663  0.79170097     0.16800
H2233       H  0.84650430  0.90053013  0.60933721     0.16700
C2234       C  0.85197551  0.64635337  0.28016325     0.30600
C2235       C  0.88539029  0.61290457  0.21766064     0.30600
C2236       C  0.84005469  0.63735765  0.22380718    -0.05600
C2237       C  0.88065907  0.65905885  0.26525183    -0.06400
C2238       C  0.86068136  0.61819802  0.30796903    -0.06200
C2239       C  0.85698749  0.62071916  0.19126679    -0.05600
C2240       C  0.89750947  0.64251131  0.23137072    -0.06400
C2241       C  0.87757312  0.60124576  0.27558741    -0.06200
C2242       C  0.84261351  0.61637238  0.14182517    -0.31600
N2243       N  0.81728725  0.62959940  0.14441663     0.14900
C2244       C  0.81576241  0.64252061  0.19457323    -0.31600
H2245       H  0.79831562  0.65516618  0.20857507     0.16800
C2246       C  0.92069695  0.65893328  0.21871173    -0.30600
N2247       N  0.91969749  0.68324306  0.24801185     0.13600
C2248       C  0.89516038  0.68354868  0.27658050    -0.30600
C2249       C  0.88410655  0.57753657  0.30670286    -0.30900
N2250       N  0.87170692  0.57948154  0.35748620     0.14100
H2251       H  0.89695775  0.56007410  0.29327112     0.16700
C2252       C  0.85800005  0.60458128  0.35907606    -0.30900
H2253       H  0.84720398  0.61229079  0.39545179     0.16700
H2254       H  0.88826725  0.70042897  0.30337084     0.16700
H2255       H  0.85003003  0.60437913  0.10662510     0.16800
H2256       H  0.93693599  0.65458362  0.18879509     0.16700
C2257       C  0.63858446  0.65128576  0.71875581     0.30600
C2258       C  0.60718750  0.61541930  0.77967700     0.30600
C2259       C  0.65068702  0.64274998  0.77653153    -0.05600
C2260       C  0.60882765  0.66162734  0.73266950    -0.06400
C2261       C  0.63332273  0.62188469  0.69109174    -0.06200
C2262       C  0.63410008  0.62507870  0.80732908    -0.05600
C2263       C  0.59240000  0.64337952  0.76296994    -0.06400
C2264       C  0.61679692  0.60394262  0.72262663    -0.06200
C2265       C  0.64738043  0.61933745  0.85716724    -0.31600
N2266       N  0.67230588  0.63261357  0.85765793     0.14900
C2267       C  0.67483179  0.64626940  0.80798037    -0.31600
H2268       H  0.69348055  0.65727079  0.79540625     0.16800
C2269       C  0.56625484  0.65630636  0.76766634    -0.30600
N2270       N  0.56686092  0.68216300  0.74299558     0.13600
C2271       C  0.59287418  0.68529057  0.72099751    -0.30600
C2272       C  0.61241972  0.57976379  0.69184128    -0.30900
N2273       N  0.62644256  0.58142393  0.64261186     0.14100
H2274       H  0.59962975  0.56216489  0.70441447     0.16700
C2275       C  0.63931359  0.60719545  0.64187854    -0.30900
H2276       H  0.65205086  0.61485018  0.60795503     0.16700
H2277       H  0.59980837  0.70359396  0.69807414     0.16700
H2278       H  0.63974654  0.60581108  0.89005289     0.16800
H2279       H  0.54797335  0.64768683  0.78763911     0.16700
C2280       C  0.63345918  0.86165420  0.28240785     0.30600
C2281       C  0.60237752  0.89841357  0.22327684     0.30600
C2282       C  0.64714876  0.87211811  0.22783260    -0.05600
C2283       C  0.60480969  0.85076670  0.26403840    -0.06400
C2284       C  0.62642750  0.88987527  0.31236090    -0.06200
C2285       C  0.63081172  0.89014612  0.19687872    -0.05600
C2286       C  0.58870480  0.86910610  0.23289039    -0.06400
C2287       C  0.61012182  0.90813537  0.28180623    -0.06200
C2288       C  0.64539622  0.89601494  0.14822487    -0.31600
N2289       N  0.67060255  0.88290398  0.14946055     0.14900
C2290       C  0.67207193  0.86869060  0.19865189    -0.31600
H2291       H  0.68986646  0.85634568  0.21176811     0.16800
C2292       C  0.56488680  0.85398019  0.21843974    -0.30600
N2293       N  0.56582037  0.82775959  0.24210426     0.13600
C2294       C  0.59032887  0.82584513  0.27000932    -0.30600
C2295       C  0.60643110  0.93244113  0.31234370    -0.30900
N2296       N  0.62065226  0.93010529  0.36087243     0.14100
H2297       H  0.59473774  0.95083175  0.29945538     0.16700
C2298       C  0.63336835  0.90435891  0.36082050    -0.30900
H2299       H  0.64744587  0.89723478  0.39293290     0.16700
H2300       H  0.59715833  0.80763697  0.29344278     0.16700
H2301       H  0.63821910  0.90888264  0.11398852     0.16800
H2302       H  0.54810809  0.86133903  0.19225578     0.16700
O2303       O  0.52186381  0.51992080  0.11002152    -0.79500
O2304       O  0.96822231  0.54911298  0.92903622    -0.79500
O2305       O  0.55466064  0.51657324  0.93715285    -0.79600
O2306       O  0.94814490  0.53370062  0.04154261    -0.79500
O2307       O  0.52209962  0.54755204  0.92497572    -0.79600
O2308       O  0.96725136  0.51675616  0.11476975    -0.79500
O2309       O  0.93475598  0.51962286  0.94568047    -0.79500
O2310       O  0.54340645  0.53291235  0.03576960    -0.79600
C2311       C  0.53863768  0.53605163  0.08608637     1.10200
C2312       C  0.94322695  0.54245748  0.92454113     1.10000
C2313       C  0.54698223  0.54055782  0.92038226     1.10200
C2314       C  0.95141006  0.53425105  0.09237389     1.10100
O2315       O  0.96764794  0.96310882  0.05928687    -0.79500
O2316       O  0.52098377  0.99010891  0.88159605    -0.79600
O2317       O  0.56591648  0.98139864  0.02620090    -0.79500
O2318       O  0.96405441  0.96608695  0.95583331    -0.79500
O2319       O  0.96567390  0.99321072  0.88304791    -0.79600
O2320       O  0.52568439  0.96603436  0.05659493    -0.79500
O2321       O  0.92668962  0.98132089  0.03502575    -0.79500
O2322       O  0.52348674  0.96480890  0.95646826    -0.79600
Co2323     Co  0.99555758  0.49318028  0.07688936     1.51500
Co2324     Co  0.99442654  0.51992315  0.90957493     1.51700
Co2325     Co  0.53276820  0.49862998  0.99859273     1.51600
Co2326     Co  0.95767153  0.49939795  0.00261836     1.51500
O2327       O  0.99499257  0.51241129  0.99309937    -1.41500
C2328       C  0.94103199  0.96400069  0.06331549     1.10100
C2329       C  0.52657365  0.96690008  0.90530852     1.10200
C2330       C  0.55186690  0.96896702  0.06367770     1.10100
C2331       C  0.95894543  0.97031222  0.90558292     1.10100
O2332       O  0.76634087  0.71238654  0.44065379    -0.79500
O2333       O  0.76173257  0.81844099  0.54918239    -0.79500
O2334       O  0.78207183  0.77282920  0.42956348    -0.79600
O2335       O  0.78504193  0.72821021  0.54679478    -0.79500
O2336       O  0.75703752  0.81166909  0.43955794    -0.79600
O2337       O  0.75265606  0.69777287  0.54729808    -0.79500
O2338       O  0.79050050  0.78290720  0.55276721    -0.79500
O2339       O  0.75761452  0.73504070  0.36167276    -0.79600
C2340       C  0.77012812  0.71573464  0.38803557     1.10200
C2341       C  0.78549579  0.80832740  0.56124898     1.10000
C2342       C  0.77885467  0.79884013  0.42277636     1.10200
C2343       C  0.77681345  0.70462097  0.56163256     1.10100
O2344       O  0.70285135  0.72972030  0.54317058    -0.79500
O2345       O  0.70117061  0.78695011  0.45947058    -0.79600
O2346       O  0.71072054  0.73083936  0.42120190    -0.79500
O2347       O  0.74181588  0.78724345  0.62396870    -0.79500
O2348       O  0.70748653  0.79352210  0.56542909    -0.79600
O2349       O  0.71616346  0.69029957  0.46502831    -0.79500
O2350       O  0.73254491  0.73204628  0.61309685    -0.79500
O2351       O  0.72646072  0.78055372  0.38705028    -0.79600
Co2352     Co  0.73333658  0.72284416  0.49219749     1.51500
Co2353     Co  0.73160428  0.80112409  0.50306885     1.51700
Co2354     Co  0.74793960  0.75146915  0.42975455     1.51600
Co2355     Co  0.76272052  0.75737400  0.58129670     1.51500
O2356       O  0.74437367  0.76186022  0.50879792    -1.41500
C2357       C  0.70815361  0.72690803  0.59418501     1.10100
C2358       C  0.70403096  0.78923169  0.40847337     1.10200
C2359       C  0.70397602  0.70510571  0.42875193     1.10100
C2360       C  0.71759708  0.79632068  0.61276296     1.10100
C2361       C  0.58755907  0.92132770  0.19215010     0.00500
C2362       C  0.60363194  0.94289733  0.16799804    -0.11400
C2363       C  0.59256642  0.95962679  0.12624449     0.02700
C2364       C  0.56449133  0.95589506  0.11199442     0.00400
C2365       C  0.54717379  0.93980622  0.14681977    -0.11400
C2366       C  0.55850387  0.92338307  0.18854670     0.02600
H2367       H  0.62532608  0.94546104  0.17912804     0.15600
H2368       H  0.52473134  0.93994705  0.14172002     0.15600
C2369       C  0.54006418  0.91312766  0.23127907     0.37200
C2370       C  0.61038533  0.97992584  0.09913813     0.37100
N2371       N  0.52459911  0.90626623  0.26562738    -0.43100
N2372       N  0.62468672  0.49623820  0.07767482    -0.43100
C2373       C  0.64912302  0.83955353  0.31426352     0.00500
C2374       C  0.64656964  0.83926895  0.37201337    -0.11400
C2375       C  0.66348212  0.82222022  0.40391147     0.02700
C2376       C  0.68258328  0.80389284  0.37717200     0.00400
C2377       C  0.68123825  0.80024109  0.31976644    -0.11400
C2378       C  0.66342528  0.81698657  0.28829466     0.02600
H2379       H  0.63136414  0.85240893  0.39275273     0.15600
H2380       H  0.69391933  0.78428036  0.29969182     0.15600
C2381       C  0.65918857  0.80941690  0.23094668     0.37200
C2382       C  0.66128411  0.82532311  0.46355674     0.37100
N2383       N  0.65586569  0.80314815  0.18508135    -0.43100
N2384       N  0.65938284  0.82794364  0.51117885    -0.43100
C2385       C  0.68700561  0.71314221  0.62903960     0.00500
C2386       C  0.66454001  0.69985495  0.60271036    -0.11400
C2387       C  0.64815004  0.68039408  0.63114160     0.02700
C2388       C  0.65441923  0.67371665  0.68680590     0.00400
C2389       C  0.67231512  0.69208339  0.71525820    -0.11400
C2390       C  0.68970183  0.71050771  0.68683288     0.02600
H2391       H  0.66026510  0.70384476  0.55923136     0.15600
H2392       H  0.67230158  0.69307781  0.75988108     0.15600
C2393       C  0.70978246  0.72634189  0.71825277     0.37200
C2394       C  0.62389278  0.66948706  0.60351150     0.37100
N2395       N  0.72587730  0.73891220  0.74362000    -0.43100
N2396       N  0.60407695  0.66148949  0.58157824    -0.43100
C2397       C  0.56524430  0.55999860  0.89221930     0.00500
C2398       C  0.58794952  0.54971608  0.86231577    -0.11400
C2399       C  0.60258666  0.56757648  0.82717951     0.02700
C2400       C  0.59246501  0.59530115  0.81765422     0.00400
C2401       C  0.57287404  0.60626555  0.85498303    -0.11400
C2402       C  0.55892439  0.58896919  0.89155557     0.02600
H2403       H  0.59435439  0.52792193  0.86669869     0.15600
H2404       H  0.56945685  0.62859206  0.85849741     0.15600
C2405       C  0.53905491  0.60182368  0.92919952     0.37200
C2406       C  0.62971661  0.55815177  0.80888497     0.37100
N2407       N  0.52323643  0.61225393  0.95918985    -0.43100
N2408       N  0.65195753  0.55070980  0.79728943    -0.43100
C2409       C  0.90282729  0.59182719  0.18573517     0.00500
C2410       C  0.93161049  0.59589855  0.17911526    -0.11400
C2411       C  0.94752724  0.57816847  0.14624231     0.02700
C2412       C  0.93546601  0.55379734  0.12531658     0.00400
C2413       C  0.90765573  0.54750338  0.13669248    -0.11400
C2414       C  0.89124385  0.56614397  0.16710310     0.02600
H2415       H  0.94249596  0.61177552  0.20149235     0.15600
H2416       H  0.89883352  0.52796413  0.12189654     0.15600
C2417       C  0.86323791  0.55751456  0.18111824     0.37200
C2418       C  0.97559228  0.58637044  0.13221564     0.37100
N2419       N  0.84085883  0.55059560  0.19263871    -0.43100
N2420       N  0.99761432  0.59400009  0.11994909    -0.43100
C2421       C  0.83152832  0.66525329  0.30960929     0.00500
C2422       C  0.81266967  0.65324809  0.34741194    -0.11400
C2423       C  0.79248666  0.66936378  0.37342302     0.02700
C2424       C  0.79011541  0.69797027  0.35986969     0.00400
C2425       C  0.80645414  0.70950229  0.31759613    -0.11400
C2426       C  0.82619316  0.69303045  0.29058338     0.02600
H2427       H  0.81181007  0.63085105  0.35359946     0.15600
H2428       H  0.80309385  0.73107596  0.30430644     0.15600
C2429       C  0.83663450  0.70347395  0.23819529     0.37200
C2430       C  0.77309107  0.65541306  0.41022916     0.37100
N2431       N  0.84354495  0.71132735  0.19479337    -0.43100
N2432       N  0.75753687  0.64394550  0.43917198    -0.43100
C2433       C  0.83302248  0.84984227  0.68403356     0.00500
C2434       C  0.83840470  0.82191205  0.67076730    -0.11400
C2435       C  0.82651729  0.80976048  0.62475336     0.02700
C2436       C  0.80433754  0.82376834  0.59750430     0.00400
C2437       C  0.79607108  0.85048203  0.61581674    -0.11400
C2438       C  0.80984408  0.86343144  0.65935801     0.02600
H2439       H  0.85134318  0.80903407  0.69679262     0.15600
H2440       H  0.77842754  0.86106546  0.59715334     0.15600
C2441       C  0.79956514  0.89043924  0.67798258     0.37200
C2442       C  0.83811533  0.78312009  0.60706747     0.37100
N2443       N  0.79154190  0.91217124  0.69258418    -0.43100
N2444       N  0.84802124  0.76212536  0.59277995    -0.43100
C2445       C  0.90572806  0.91681777  0.81480947     0.00500
C2446       C  0.89492178  0.93457477  0.85543035    -0.11400
C2447       C  0.91211539  0.95141118  0.88658264     0.02700
C2448       C  0.94094543  0.95140337  0.87595846     0.00400
C2449       C  0.95150080  0.93705259  0.83008579    -0.11400
C2450       C  0.93380980  0.92079448  0.79778448     0.02600
H2451       H  0.87279059  0.93729208  0.86026946     0.15600
H2452       H  0.97311393  0.93975248  0.81793168     0.15600
C2453       C  0.94374313  0.91256341  0.74361116     0.37200
C2454       C  0.89865314  0.96943770  0.92642560     0.37100
N2455       N  0.95132800  0.90739405  0.69915901    -0.43100
N2456       N  0.88593673  0.98306039  0.95710637    -0.43100
C2457       C  0.89781500  0.59527203  0.81654901     0.00500
C2458       C  0.88341104  0.57797533  0.85461794    -0.11400
C2459       C  0.89763034  0.56168672  0.89285057     0.02700
C2460       C  0.92646273  0.55909188  0.88716181     0.00400
C2461       C  0.94020360  0.57151173  0.84170225    -0.11400
C2462       C  0.92596627  0.58905538  0.80558795     0.02600
H2463       H  0.86098401  0.57668257  0.85462816     0.15600
H2464       H  0.96206984  0.56711560  0.83376098     0.15600
C2465       C  0.93969084  0.59710801  0.75456753     0.37200
C2466       C  0.88237430  0.54978697  0.93900670     0.37100
N2467       N  0.95051767  0.60248765  0.71289695    -0.43100
N2468       N  0.86987852  0.54108310  0.97644083    -0.43100
C2469       C  0.82881945  0.66422598  0.67999710     0.00500
C2470       C  0.80803173  0.64846274  0.65290614    -0.11400
C2471       C  0.79034638  0.66088146  0.61426188     0.02700
C2472       C  0.79248385  0.68982641  0.60462622     0.00400
C2473       C  0.80898770  0.70616759  0.64008821    -0.11400
C2474       C  0.82616966  0.69363071  0.67937763     0.02600
H2475       H  0.80573130  0.62621623  0.66128123     0.15600
H2476       H  0.80762934  0.72890846  0.63859924     0.15600
C2477       C  0.83699150  0.71107920  0.72292872     0.37200
C2478       C  0.77062237  0.64349567  0.58535251     0.37100
N2479       N  0.84462057  0.72538529  0.75840220    -0.43100
N2480       N  0.75470523  0.62941403  0.56281919    -0.43100
C2481       C  0.54065114  0.94421003  0.87531088     0.00500
C2482       C  0.53893926  0.94371069  0.81746044    -0.11400
C2483       C  0.55682175  0.92657626  0.78695186     0.02700
C2484       C  0.57947491  0.91314557  0.81409977     0.00400
C2485       C  0.57798444  0.90996723  0.87176660    -0.11400
C2486       C  0.55834830  0.92470561  0.90256816     0.02600
H2487       H  0.52348270  0.95646076  0.79620973     0.15600
H2488       H  0.59154892  0.89523587  0.89295767     0.15600
C2489       C  0.55685556  0.91844822  0.96120743     0.37200
C2490       C  0.55006682  0.92165802  0.72942523     0.37100
N2491       N  0.55592693  0.91206971  0.00757977    -0.43100
N2492       N  0.54449588  0.91749659  0.68349367    -0.43100
C2493       C  0.65965320  0.84652458  0.69767799     0.00500
C2494       C  0.67899031  0.85889234  0.66157017    -0.11400
C2495       C  0.69929595  0.84301497  0.63563710     0.02700
C2496       C  0.70236097  0.81450589  0.64979681     0.00400
C2497       C  0.68604962  0.80276796  0.69173854    -0.11400
C2498       C  0.66526882  0.81882376  0.71713807     0.02600
H2499       H  0.67941938  0.88120444  0.65474992     0.15600
H2500       H  0.68899678  0.78098485  0.70353878     0.15600
C2501       C  0.65243377  0.80741644  0.76652605     0.37200
C2502       C  0.71543717  0.85644853  0.59235485     0.37100
N2503       N  0.64312749  0.79857751  0.80734276    -0.43100
N2504       N  0.72743366  0.86797189  0.55733392    -0.43100
C2505       C  0.83510473  0.84397831  0.32190694     0.00500
C2506       C  0.81563819  0.82602772  0.29753735    -0.11400
C2507       C  0.79675453  0.81138558  0.32999268     0.02700
C2508       C  0.79860881  0.81326566  0.38800982     0.00400
C2509       C  0.82118705  0.82660211  0.41251952    -0.11400
C2510       C  0.84035302  0.84083746  0.37937118     0.02600
H2511       H  0.81542838  0.82276475  0.25324244     0.15600
H2512       H  0.82424877  0.82513579  0.45705532     0.15600
C2513       C  0.86652422  0.84851365  0.40399576     0.37200
C2514       C  0.77581174  0.79481719  0.30247220     0.37100
N2515       N  0.88780948  0.85337165  0.42400379    -0.43100
N2516       N  0.75928839  0.78180932  0.27914324    -0.43100
C2517       C  0.92821119  0.94504523  0.10157841     0.00500
C2518       C  0.93505483  0.94816357  0.15763284    -0.11400
C2519       C  0.92314139  0.93066624  0.19718672     0.02700
C2520       C  0.90225052  0.91199010  0.18030297     0.00400
C2521       C  0.90087631  0.90483333  0.12374097    -0.11400
C2522       C  0.91278149  0.92197201  0.08389770     0.02600
H2523       H  0.95018464  0.96376502  0.17016481     0.15600
H2524       H  0.88975656  0.88629854  0.11042444     0.15600
C2525       C  0.90970807  0.91465454  0.02619013     0.37200
C2526       C  0.93569686  0.92921682  0.25144229     0.37100
N2527       N  0.90699499  0.90775070  0.98056109    -0.43100
N2528       N  0.94622324  0.92771289  0.29449743    -0.43100
C2529       C  0.64803530  0.66589906  0.32065174     0.00500
C2530       C  0.64523110  0.66151976  0.37805834    -0.11400
C2531       C  0.66418154  0.67289355  0.41424462     0.02700
C2532       C  0.68234208  0.69356474  0.39436213     0.00400
C2533       C  0.67995488  0.70348105  0.33948047    -0.11400
C2534       C  0.66263773  0.68980026  0.30224891     0.02600
H2535       H  0.62920065  0.64802924  0.39480986     0.15600
H2536       H  0.69249111  0.72097971  0.32500413     0.15600
C2537       C  0.65912533  0.70150701  0.24729591     0.37200
C2538       C  0.66562682  0.66138682  0.46968922     0.37100
N2539       N  0.65608366  0.71108626  0.20347825    -0.43100
N2540       N  0.66725701  0.65105297  0.51309853    -0.43100
C2541       C  0.58277100  0.59528098  0.18305813     0.00500
C2542       C  0.58660658  0.59484750  0.12564152    -0.11400
C2543       C  0.57377737  0.57484245  0.09350973     0.02700
C2544       C  0.55296345  0.55777165  0.11750277     0.00400
C2545       C  0.54532518  0.56193337  0.17322540    -0.11400
C2546       C  0.55960539  0.58106074  0.20582505     0.02600
H2547       H  0.59977674  0.61000765  0.10519025     0.15600
H2548       H  0.52814321  0.55033761  0.19145082     0.15600
C2549       C  0.54908179  0.58666890  0.26097038     0.37200
C2550       C  0.58491287  0.57114721  0.03836155     0.37100
N2551       N  0.54042519  0.59124446  0.30494123    -0.43100
N2552       N  0.59565477  0.56853199  0.99566208    -0.43100
loop_ 
_geom_bond_atom_site_label_1 
_geom_bond_atom_site_label_2 
_geom_bond_distance 
_geom_bond_site_symmetry_2 
_ccdc_geom_bond_type 
C1            C3   1.567       .  S
C1            C5   1.552       .  S
C1            C4   1.538       .  S
C1          C627   1.501       .  S
C2            C6   1.553       .  S
C2            C8   1.555       .  S
C2            C7   1.534       .  S
C2          C615   1.500       .  S
C3           C11   1.396       .  A
C3            C6   1.390       .  A
C4           C15   1.390       .  A
C4            C7   1.372       .  A
C5           C19   1.398       .  A
C5            C8   1.380       .  A
C6            C9   1.396       .  A
C7           C13   1.387       .  A
C8           C16   1.390       .  A
C9           N10   1.365       .  A
C9           H22   1.082       .  S
N10          C11   1.360       .  A
N10         C284   1.465       .  S
C11          H12   1.081       .  S
C13          N14   1.363       .  A
C13          H23   1.082       .  S
N14          C15   1.366       .  A
N14          C44   1.463       .  S
C15          H21   1.082       .  S
C16          N17   1.355       .  A
C16          H18   1.082       .  S
N17          C19   1.366       .  A
N17         C101   1.462       .  S
C19          H20   1.082       .  S
N24          C29   1.359       .  A
N24        C1304   1.359       .  A
N24          H56   1.040       .  S
N25          C32   1.360       .  A
N25          C33   1.361       .  A
N26          C31   1.361       .  A
N26        C1306   1.360       .  A
N26          H57   1.041       .  S
N27          C34   1.356       .  A
N27          C35   1.357       .  A
C28          C36   1.387       .  A
C28          C44   1.427       .  A
C28        N1300   1.359   1_455  A
C29          C45   1.425       .  A
C29          C37   1.386       .  A
C30          C38   1.384       .  A
C30          C47   1.426       .  A
C30        N1302   1.360   1_455  A
C31          C46   1.425       .  A
C31          C39   1.385       .  A
C32          C44   1.429       .  A
C32          C40   1.386       .  A
C33          C47   1.429       .  A
C33          C41   1.386       .  A
C34          C42   1.380       .  A
C34          C45   1.417       .  A
C35          C43   1.384       .  A
C35          C46   1.417       .  A
C36        C1313   1.380   1_455  A
C36          H48   1.082       .  S
C37        C1312   1.380       .  A
C37          H49   1.082       .  S
C38        C1315   1.381   1_455  A
C38          H50   1.079       .  S
C39        C1314   1.381       .  A
C39          H51   1.082       .  S
C40          C41   1.378       .  A
C40          H52   1.082       .  S
C41          H53   1.082       .  S
C42          C43   1.371       .  A
C42          H54   1.074       .  S
C43          H55   1.082       .  S
C45         N333   1.459       .  S
C46          N74   1.460       .  S
C47         N379   1.466       .  S
C58          C60   1.569       .  S
C58          C62   1.540       .  S
C58          C61   1.559       .  S
C58         C591   1.507       .  S
C59          C63   1.550       .  S
C59          C65   1.530       .  S
C59          C64   1.558       .  S
C59         C606   1.496       .  S
C60          C68   1.405       .  A
C60          C63   1.380       .  A
C61          C72   1.395       .  A
C61          C64   1.390       .  A
C62          C76   1.388       .  A
C62          C65   1.373       .  A
C63          C66   1.394       .  A
C64          C70   1.395       .  A
C65          C73   1.385       .  A
C66          N67   1.356       .  A
C66          H79   1.082       .  S
N67          C68   1.366       .  A
N67         C250   1.467       .  S
C68          H69   1.081       .  S
C70          N71   1.365       .  A
C70          H80   1.081       .  S
N71          C72   1.366       .  A
N71         C136   1.470       .  S
C72          H78   1.082       .  S
C73          N74   1.361       .  A
C73          H75   1.082       .  S
N74          C76   1.367       .  A
C76          H77   1.082       .  S
N81          C85   1.356       .  A
N81         C724   1.359   1_545  A
N81         H113   1.043       .  S
N82          C89   1.361       .  A
N82          C90   1.364       .  A
N83          C87   1.364       .  A
N83         C726   1.363   1_545  A
N83         H114   1.043       .  S
N84          C91   1.360       .  A
N84          C92   1.357       .  A
C85          C93   1.386       .  A
C85         C101   1.421       .  A
C86         C102   1.425       .  A
C86          C94   1.387       .  A
C86         N719   1.359       .  A
C87          C95   1.383       .  A
C87         C104   1.434       .  A
C88         C103   1.432       .  A
C88          C96   1.386       .  A
C88         N721   1.363       .  A
C89         C101   1.434       .  A
C89          C97   1.387       .  A
C90         C104   1.428       .  A
C90          C98   1.381       .  A
C91          C99   1.384       .  A
C91         C102   1.424       .  A
C92         C100   1.387       .  A
C92         C103   1.426       .  A
C93         C732   1.380   1_545  A
C93         H105   1.082       .  S
C94         C731   1.380       .  A
C94         H106   1.082       .  S
C95         C734   1.382   1_545  A
C95         H107   1.076       .  S
C96         C733   1.382       .  A
C96         H108   1.082       .  S
C97          C98   1.378       .  A
C97         H109   1.081       .  S
C98         H110   1.078       .  S
C99         C100   1.377       .  A
C99         H111   1.082       .  S
C100        H112   1.082       .  S
C102        N382   1.462       .  S
C103        N165   1.464       .  S
C104        N359   1.478       .  S
N115        C119   1.358       .  A
N115        C758   1.361   1_545  A
N115        H147   1.041       .  S
N116        C123   1.358       .  A
N116        C124   1.359       .  A
N117        C121   1.361       .  A
N117        C760   1.359   1_545  A
N117        H148   1.041       .  S
N118        C125   1.362       .  A
N118        C126   1.361       .  A
C119        C127   1.386       .  A
C119        C135   1.425       .  A
C120        C136   1.424       .  A
C120        C128   1.385       .  A
C120        N753   1.361       .  A
C121        C129   1.387       .  A
C121        C138   1.427       .  A
C122        C137   1.425       .  A
C122        C130   1.386       .  A
C122        N755   1.359       .  A
C123        C135   1.424       .  A
C123        C131   1.386       .  A
C124        C138   1.424       .  A
C124        C132   1.385       .  A
C125        C133   1.380       .  A
C125        C136   1.428       .  A
C126        C134   1.385       .  A
C126        C137   1.428       .  A
C127        C766   1.379   1_545  A
C127        H139   1.081       .  S
C128        C765   1.379       .  A
C128        H140   1.082       .  S
C129        C768   1.380   1_545  A
C129        H141   1.082       .  S
C130        C767   1.380       .  A
C130        H142   1.082       .  S
C131        C132   1.378       .  A
C131        H143   1.082       .  S
C132        H144   1.082       .  S
C133        C134   1.377       .  A
C133        H145   1.076       .  S
C134        H146   1.082       .  S
C135        N336   1.460       .  S
C137        N310   1.463       .  S
C138        N215   1.463       .  S
C149        C151   1.561       .  S
C149        C153   1.548       .  S
C149        C152   1.543       .  S
C149        C570   1.505       .  S
C150        C154   1.536       .  S
C150        C156   1.567       .  S
C150        C155   1.551       .  S
C150        C579   1.509       .  S
C151        C159   1.401       .  A
C151        C154   1.379       .  A
C152        C163   1.388       .  A
C152        C155   1.378       .  A
C153        C167   1.392       .  A
C153        C156   1.387       .  A
C154        C157   1.384       .  A
C155        C161   1.398       .  A
C156        C164   1.397       .  A
C157        N158   1.357       .  A
C157        H170   1.082       .  S
N158        C159   1.371       .  A
N158        C252   1.466       .  S
C159        H160   1.082       .  S
C161        N162   1.370       .  A
C161        H171   1.082       .  S
N162        C163   1.363       .  A
N162        C192   1.469       .  S
C163        H169   1.082       .  S
C164        N165   1.364       .  A
C164        H166   1.081       .  S
N165        C167   1.360       .  A
C167        H168   1.082       .  S
N172        C177   1.359       .  A
N172        C176   1.362       .  A
N172        H204   1.042       .  S
N173        C181   1.358       .  A
N173       C1456   1.360       .  A
N174        C179   1.362       .  A
N174        C178   1.361       .  A
N174        H205   1.041       .  S
N175        C183   1.363       .  A
N175       C1458   1.361       .  A
C176        C184   1.381       .  A
C176        C192   1.425       .  A
C177        C193   1.428       .  A
C177        C185   1.387       .  A
C178        C186   1.386       .  A
C178        C195   1.428       .  A
C179        C194   1.427       .  A
C179        C187   1.383       .  A
C180        C192   1.425       .  A
C180        C188   1.384       .  A
C180       N1449   1.360   1_455  A
C181        C195   1.424       .  A
C181        C189   1.381       .  A
C182        C190   1.386       .  A
C182        C193   1.431       .  A
C182       N1451   1.361   1_455  A
C183        C191   1.382       .  A
C183        C194   1.430       .  A
C184        C185   1.379       .  A
C184        H196   1.077       .  S
C185        H197   1.082       .  S
C186        C187   1.381       .  A
C186        H198   1.082       .  S
C187        H199   1.080       .  S
C188       C1465   1.378   1_455  A
C188        H200   1.082       .  S
C189       C1464   1.378       .  A
C189        H201   1.075       .  S
C190       C1467   1.381   1_455  A
C190        H202   1.082       .  S
C191       C1466   1.381       .  A
C191        H203   1.078       .  S
C193        N356   1.466       .  S
C194        N219   1.473       .  S
C195        N313   1.464       .  S
C206        C208   1.553       .  S
C206        C210   1.541       .  S
C206        C209   1.574       .  S
C206        C555   1.510       .  S
C207        C211   1.533       .  S
C207        C213   1.546       .  S
C207        C212   1.557       .  S
C207        C543   1.501       .  S
C208        C216   1.394       .  A
C208        C211   1.372       .  A
C209        C220   1.401       .  A
C209        C212   1.397       .  A
C210        C224   1.392       .  A
C210        C213   1.374       .  A
C211        C214   1.388       .  A
C212        C218   1.394       .  A
C213        C221   1.389       .  A
C214        N215   1.362       .  A
C214        H227   1.082       .  S
N215        C216   1.363       .  A
C216        H217   1.082       .  S
C218        N219   1.365       .  A
C218        H228   1.082       .  S
N219        C220   1.371       .  A
C220        H226   1.081       .  S
C221        N222   1.355       .  A
C221        H223   1.081       .  S
N222        C224   1.366       .  A
N222        C286   1.460       .  S
C224        H225   1.082       .  S
N229        C234   1.358       .  A
N229        C233   1.359       .  A
N229        H261   1.041       .  S
N230        C237   1.360       .  A
N230        C238   1.359   1_554  A
N231        C236   1.366       .  A
N231        C235   1.364       .  A
N231        H262   1.040       .  S
N232        C239   1.364       .  A
N232        C240   1.364   1_554  A
C233        C241   1.385       .  A
C233        C249   1.421       .  A
C234        C250   1.423       .  A
C234        C242   1.386       .  A
C235        C243   1.387       .  A
C235        C252   1.437       .  A
C236        C251   1.438       .  A
C236        C244   1.386       .  A
C237        C249   1.425       .  A
C237        C245   1.385       .  A
C238        C252   1.425       .  A
C238        C246   1.386       .  A
C239        C247   1.385       .  A
C239        C250   1.434       .  A
C240        C248   1.386       .  A
C240        C251   1.435       .  A
C241        C242   1.379       .  A
C241        H253   1.082       .  S
C242        H254   1.082       .  S
C243        C244   1.384       .  A
C243        H255   1.082       .  S
C244        H256   1.081       .  S
C245        C246   1.375   1_554  A
C245        H257   1.082       .  S
C246        H258   1.082       .  S
C247        C248   1.380   1_554  A
C247        H259   1.082       .  S
C248        H260   1.082       .  S
C249        N375   1.462       .  S
C251        N306   1.478       .  S
N263        C268   1.361       .  A
N263        C267   1.361       .  A
N263        H295   1.040       .  S
N264        C271   1.358       .  A
N264        C272   1.359   1_554  A
N265        C270   1.356       .  A
N265        C269   1.357       .  A
N265        H296   1.042       .  S
N266        C273   1.361       .  A
N266        C274   1.361   1_554  A
C267        C275   1.388       .  A
C267        C283   1.430       .  A
C268        C284   1.425       .  A
C268        C276   1.385       .  A
C269        C277   1.386       .  A
C269        C286   1.419       .  A
C270        C285   1.419       .  A
C270        C278   1.386       .  A
C271        C283   1.424       .  A
C271        C279   1.385       .  A
C272        C286   1.426       .  A
C272        C280   1.385       .  A
C273        C281   1.386       .  A
C273        C284   1.430       .  A
C274        C282   1.385       .  A
C274        C285   1.428       .  A
C275        C276   1.381       .  A
C275        H287   1.082       .  S
C276        H288   1.082       .  S
C277        C278   1.376       .  A
C277        H289   1.082       .  S
C278        H290   1.082       .  S
C279        C280   1.378   1_554  A
C279        H291   1.082       .  S
C280        H292   1.082       .  S
C281        C282   1.379   1_554  A
C281        H293   1.082       .  S
C282        H294   1.082       .  S
C283        N329   1.462       .  S
C285        N352   1.461       .  S
C297        C299   1.572       .  S
C297        C301   1.551       .  S
C297        C300   1.543       .  S
C297        C531   1.506       .  S
C298        C302   1.549       .  S
C298        C304   1.569       .  S
C298        C303   1.541       .  S
C298        C519   1.505       .  S
C299        C307   1.405       .  A
C299        C302   1.384       .  A
C300        C311   1.392       .  A
C300        C303   1.372       .  A
C301        C315   1.395       .  A
C301        C304   1.388       .  A
C302        C305   1.397       .  A
C303        C309   1.390       .  A
C304        C312   1.401       .  A
C305        N306   1.367       .  A
C305        H318   1.082       .  S
N306        C307   1.368       .  A
C307        H308   1.080       .  S
C309        N310   1.361       .  A
C309        H319   1.082       .  S
N310        C311   1.366       .  A
C311        H317   1.082       .  S
C312        N313   1.359       .  A
C312        H314   1.079       .  S
N313        C315   1.362       .  A
C315        H316   1.082       .  S
C320        C322   1.539       .  S
C320        C324   1.552       .  S
C320        C323   1.547       .  S
C320        C507   1.505       .  S
C321        C325   1.550       .  S
C321        C327   1.545       .  S
C321        C326   1.564       .  S
C321        C495   1.514       .  S
C322        C330   1.385       .  A
C322        C325   1.377       .  A
C323        C334   1.389       .  A
C323        C326   1.391       .  A
C324        C338   1.395       .  A
C324        C327   1.382       .  A
C325        C328   1.396       .  A
C326        C332   1.395       .  A
C327        C335   1.387       .  A
C328        N329   1.368       .  A
C328        H341   1.082       .  S
N329        C330   1.359       .  A
C330        H331   1.082       .  S
C332        N333   1.358       .  A
C332        H342   1.079       .  S
N333        C334   1.362       .  A
C334        H340   1.082       .  S
C335        N336   1.361       .  A
C335        H337   1.082       .  S
N336        C338   1.361       .  A
C338        H339   1.081       .  S
C343        C345   1.562       .  S
C343        C347   1.574       .  S
C343        C346   1.545       .  S
C343        C474   1.518       .  S
C344        C348   1.530       .  S
C344        C350   1.549       .  S
C344        C349   1.557       .  S
C344        C486   1.499       .  S
C345        C353   1.398       .  A
C345        C348   1.374       .  A
C346        C357   1.387       .  A
C346        C349   1.380       .  A
C347        C361   1.407       .  A
C347        C350   1.390       .  A
C348        C351   1.387       .  A
C349        C355   1.399       .  A
C350        C358   1.389       .  A
C351        N352   1.356       .  A
C351        H364   1.082       .  S
N352        C353   1.365       .  A
C353        H354   1.081       .  S
C355        N356   1.364       .  A
C355        H365   1.081       .  S
N356        C357   1.363       .  A
C357        H363   1.082       .  S
C358        N359   1.363       .  A
C358        H360   1.082       .  S
N359        C361   1.376       .  A
C361        H362   1.082       .  S
C366        C368   1.549       .  S
C366        C370   1.562       .  S
C366        C369   1.539       .  S
C366        C459   1.500       .  S
C367        C371   1.553       .  S
C367        C373   1.533       .  S
C367        C372   1.560       .  S
C367        C447   1.499       .  S
C368        C376   1.394       .  A
C368        C371   1.378       .  A
C369        C380   1.384       .  A
C369        C372   1.384       .  A
C370        C384   1.400       .  A
C370        C373   1.379       .  A
C371        C374   1.391       .  A
C372        C378   1.400       .  A
C373        C381   1.384       .  A
C374        N375   1.359       .  A
C374        H387   1.082       .  S
N375        C376   1.364       .  A
C376        H377   1.082       .  S
C378        N379   1.370       .  A
C378        H388   1.081       .  S
N379        C380   1.360       .  A
C380        H386   1.082       .  S
C381        N382   1.360       .  A
C381        H383   1.082       .  S
N382        C384   1.366       .  A
C384        H385   1.082       .  S
O389        C397   1.252       .  A
O389      Co1685   1.971   1_445  S
O390        C398   1.248       .  A
O390       Co410   1.927       .  S
O391        C399   1.263       .  A
O391       Co411   2.002   1_545  S
O392        C400   1.235       .  A
O392       Co412   1.938   1_545  S
O393        C399   1.243       .  A
O393      Co1686   1.912   1_455  S
O394        C400   1.247       .  A
O394       Co409   1.980   1_545  S
O395        C398   1.266       .  A
O395       Co412   2.002   1_546  S
O396        C397   1.242       .  A
O396       Co411   1.936   1_544  S
C397        C630   1.460       .  S
C398        C546   1.442       .  S
C399        C483   1.443       .  S
C400        C498   1.440       .  S
O401        C414   1.281       .  A
O401      Co1047   2.013       .  S
O402        C415   1.269       .  A
O402      Co2324   2.019   1_455  S
O403        C416   1.270       .  A
O403      Co1049   1.907   1_554  S
O404        C417   1.251       .  A
O404      Co1050   1.971   1_556  S
O405        C417   1.258       .  A
O405      Co1048   1.990       .  S
O406        C416   1.278       .  A
O406      Co2323   1.995   1_455  S
O407        C414   1.269       .  A
O407      Co1050   1.886       .  S
O408        C415   1.244       .  A
O408      Co1049   1.960       .  S
Co409      O1665   1.971   1_565  S
Co409      O1039   2.013       .  S
Co409      O2320   1.995       .  S
Co409       O413   2.213   1_564  S
Co410      O1669   1.912       .  S
Co410      O2316   2.019   1_545  S
Co410      O1043   1.990   1_545  S
Co410       O413   2.042       .  S
Co411      O1041   1.907   1_556  S
Co411      O1046   1.960       .  S
Co411      O1689   1.930   1_465  S
Co412      O1042   1.971   1_554  S
Co412      O1045   1.886       .  S
Co412       O413   1.911   1_564  S
O413      Co1687   1.930   1_545  S
C414        C603   1.427       .  S
C415        C567   1.463       .  S
C416        C450   1.451       .  S
C417        C534   1.443       .  S
O418        C426   1.289       .  A
O418       Co438   2.069       .  S
O419        C427   1.270       .  A
O419       Co439   2.009       .  S
O420        C428   1.257       .  A
O420       Co440   1.932       .  S
O421        C429   1.242       .  A
O421       Co441   1.937       .  S
O422        C428   1.275       .  A
O422       Co439   2.017       .  S
O423        C429   1.256       .  A
O423       Co438   2.008       .  S
O424        C427   1.250       .  A
O424       Co441   1.931       .  S
O425        C426   1.265       .  A
O425       Co440   1.875       .  S
C426        C510   1.445       .  S
C427        C522   1.463       .  S
C428        C594   1.438       .  S
C429        C558   1.459       .  S
O430        C443   1.262       .  A
O430       Co438   1.934       .  S
O431        C444   1.240       .  A
O431       Co439   1.929       .  S
O432        C445   1.280       .  A
O432       Co440   2.054       .  S
O433        C446   1.268       .  A
O433       Co441   2.018       .  S
O434        C446   1.249       .  A
O434       Co439   1.927       .  S
O435        C445   1.264       .  A
O435       Co438   1.879       .  S
O436        C443   1.283       .  A
O436       Co441   2.034       .  S
O437        C444   1.261       .  A
O437       Co440   2.005       .  S
Co438       O442   1.976       .  S
Co439       O442   1.968       .  S
Co440       O442   1.976       .  S
Co441       O442   1.970       .  S
C443        C471   1.469       .  S
C444        C462   1.453       .  S
C445        C618   1.443       .  S
C446        C582   1.440       .  S
C447        C448   1.409       .  A
C447        C452   1.401       .  A
C448        C449   1.386       .  A
C448        H453   1.084       .  S
C449        C450   1.404       .  A
C449        C456   1.445       .  S
C450        C451   1.406       .  A
C451        C452   1.382       .  A
C451        H454   1.085       .  S
C452        C455   1.440       .  S
C455        N457   1.156       .  T
C456       N1096   1.158       .  T
N458       C1094   1.158       .  T
C459        C460   1.396       .  A
C459        C464   1.418       .  A
C460        C461   1.379       .  A
C460        H465   1.081       .  S
C461        C462   1.417       .  A
C461        C468   1.448       .  S
C462        C463   1.396       .  A
C463        C464   1.391       .  A
C463        H466   1.085       .  S
C464        C467   1.445       .  S
C467        N469   1.157       .  T
C468        N470   1.158       .  T
C471        C472   1.407       .  A
C471        C476   1.404       .  A
C472        C473   1.394       .  A
C472        H477   1.084       .  S
C473        C474   1.410       .  A
C473        C480   1.443       .  S
C474        C475   1.410       .  A
C475        C476   1.390       .  A
C475        H478   1.076       .  S
C476        C479   1.445       .  S
C479        N481   1.157       .  T
C480        N482   1.157       .  T
C483        C484   1.392       .  A
C483        C488   1.410       .  A
C484        C485   1.388       .  A
C484        H489   1.085       .  S
C485        C486   1.422       .  A
C485        C492   1.443       .  S
C486        C487   1.399       .  A
C487        C488   1.377       .  A
C487        H490   1.078       .  S
C488        C491   1.448       .  S
C491        N493   1.157       .  T
C492        N494   1.157       .  T
C495        C496   1.405       .  A
C495        C500   1.420       .  A
C496        C497   1.385       .  A
C496        H501   1.070       .  S
C497        C498   1.396       .  A
C497        C504   1.443       .  S
C498        C499   1.395       .  A
C499        C500   1.392       .  A
C499        H502   1.086       .  S
C500        C503   1.446       .  S
C503        N505   1.157       .  T
C504        N506   1.156       .  T
C507        C508   1.403       .  A
C507        C512   1.420       .  A
C508        C509   1.382       .  A
C508        H513   1.076       .  S
C509        C510   1.403       .  A
C509        C516   1.445       .  S
C510        C511   1.395       .  A
C511        C512   1.388       .  A
C511        H514   1.086       .  S
C512        C515   1.443       .  S
C515        N517   1.157       .  T
C516        N518   1.157       .  T
C519        C520   1.391       .  A
C519        C524   1.416       .  A
C520        C521   1.379       .  A
C520        H525   1.073       .  S
C521        C522   1.416       .  A
C521        C528   1.447       .  S
C522        C523   1.402       .  A
C523        C524   1.390       .  A
C523        H526   1.082       .  S
C524        C527   1.447       .  S
C527        N529   1.157       .  T
C528        N530   1.157       .  T
C531        C532   1.392       .  A
C531        C536   1.421       .  A
C532        C533   1.379       .  A
C532        H537   1.076       .  S
C533        C534   1.406       .  A
C533        C540   1.439       .  S
C534        C535   1.394       .  A
C535        C536   1.394       .  A
C535        H538   1.085       .  S
C536        C539   1.443       .  S
C539        N541   1.157       .  T
C540        N542   1.156       .  T
C543        C544   1.411       .  A
C543        C548   1.406       .  A
C544        C545   1.382       .  A
C544        H549   1.079       .  S
C545        C546   1.395       .  A
C545        C552   1.444       .  S
C546        C547   1.406       .  A
C547        C548   1.384       .  A
C547        H550   1.086       .  S
C548        C551   1.443       .  S
C551        N553   1.157       .  T
C552        N554   1.157       .  T
C555        C556   1.415       .  A
C555        C560   1.404       .  A
C556        C557   1.391       .  A
C556        H561   1.083       .  S
C557        C558   1.400       .  A
C557        C564   1.444       .  S
C558        C559   1.407       .  A
C559        C560   1.389       .  A
C559        H562   1.084       .  S
C560        C563   1.441       .  S
C563        N565   1.157       .  T
C564        N566   1.157       .  T
C567        C568   1.397       .  A
C567        C572   1.416       .  A
C568        C569   1.391       .  A
C568        H573   1.085       .  S
C569        C570   1.419       .  A
C569        C576   1.445       .  S
C570        C571   1.398       .  A
C571        C572   1.387       .  A
C571        H574   1.082       .  S
C572        C575   1.444       .  S
C575        N577   1.157   1_556  T
C576        N578   1.157       .  T
C579        C580   1.400       .  A
C579        C584   1.422       .  A
C580        C581   1.379       .  A
C580        H585   1.074       .  S
C581        C582   1.405       .  A
C581        C588   1.445       .  S
C582        C583   1.392       .  A
C583        C584   1.395       .  A
C583        H586   1.082       .  S
C584        C587   1.443       .  S
C587        N589   1.157       .  T
C588        N590   1.157       .  T
C591        C592   1.401       .  A
C591        C596   1.415       .  A
C592        C593   1.383       .  A
C592        H597   1.079       .  S
C593        C594   1.404       .  A
C593        C600   1.445       .  S
C594        C595   1.393       .  A
C595        C596   1.392       .  A
C595        H598   1.085       .  S
C596        C599   1.441       .  S
C599        N601   1.156       .  T
C600        N602   1.157       .  T
C603        C604   1.400       .  A
C603        C608   1.396       .  A
C604        C605   1.386       .  A
C604        H609   1.086       .  S
C605        C606   1.406       .  A
C605        C612   1.443       .  S
C606        C607   1.408       .  A
C607        C608   1.381       .  A
C607        H610   1.084       .  S
C608        C611   1.443       .  S
C611        N613   1.157   1_554  T
C612        N614   1.157       .  T
C615        C616   1.404       .  A
C615        C620   1.408       .  A
C616        C617   1.377       .  A
C616        H621   1.080       .  S
C617        C618   1.399       .  A
C617        C624   1.443       .  S
C618        C619   1.407       .  A
C619        C620   1.391       .  A
C619        H622   1.085       .  S
C620        C623   1.444       .  S
C623        N625   1.157       .  T
C624        N626   1.156       .  T
C627        C628   1.395       .  A
C627        C632   1.412       .  A
C628        C629   1.379       .  A
C628        H633   1.078       .  S
C629        C630   1.411       .  A
C629        C636   1.441       .  S
C630        C631   1.405       .  A
C631        C632   1.390       .  A
C631        H634   1.085       .  S
C632        C635   1.445       .  S
C635        N637   1.157       .  T
C636        N638   1.156   1_554  T
C639        C641   1.567       .  S
C639        C643   1.552       .  S
C639        C642   1.538       .  S
C639       C1265   1.501       .  S
C640        C644   1.553       .  S
C640        C646   1.555       .  S
C640        C645   1.534       .  S
C640       C1253   1.500       .  S
C641        C649   1.396       .  A
C641        C644   1.390       .  A
C642        C653   1.390       .  A
C642        C645   1.372       .  A
C643        C657   1.398       .  A
C643        C646   1.380       .  A
C644        C647   1.396       .  A
C645        C651   1.387       .  A
C646        C654   1.390       .  A
C647        N648   1.365       .  A
C647        H660   1.082       .  S
N648        C649   1.360       .  A
N648        C922   1.465       .  S
C649        H650   1.081       .  S
C651        N652   1.363       .  A
C651        H661   1.082       .  S
N652        C653   1.366       .  A
N652        C682   1.463       .  S
C653        H659   1.082       .  S
C654        N655   1.355       .  A
C654        H656   1.082       .  S
N655        C657   1.366       .  A
N655        C739   1.462       .  S
C657        H658   1.082       .  S
N662        C667   1.359       .  A
N662       C1942   1.359       .  A
N662        H694   1.040       .  S
N663        C670   1.360       .  A
N663        C671   1.361       .  A
N664        C669   1.361       .  A
N664       C1944   1.360       .  A
N664        H695   1.041       .  S
N665        C672   1.356       .  A
N665        C673   1.357       .  A
C666        C674   1.387       .  A
C666        C682   1.427       .  A
C666       N1938   1.359   1_455  A
C667        C683   1.425       .  A
C667        C675   1.386       .  A
C668        C676   1.384       .  A
C668        C685   1.426       .  A
C668       N1940   1.360   1_455  A
C669        C684   1.425       .  A
C669        C677   1.385       .  A
C670        C682   1.429       .  A
C670        C678   1.386       .  A
C671        C685   1.429       .  A
C671        C679   1.386       .  A
C672        C680   1.380       .  A
C672        C683   1.417       .  A
C673        C681   1.384       .  A
C673        C684   1.417       .  A
C674       C1951   1.380   1_455  A
C674        H686   1.082       .  S
C675       C1950   1.380       .  A
C675        H687   1.082       .  S
C676       C1953   1.381   1_455  A
C676        H688   1.079       .  S
C677       C1952   1.381       .  A
C677        H689   1.082       .  S
C678        C679   1.378       .  A
C678        H690   1.082       .  S
C679        H691   1.082       .  S
C680        C681   1.371       .  A
C680        H692   1.074       .  S
C681        H693   1.082       .  S
C683        N971   1.459       .  S
C684        N712   1.460       .  S
C685       N1017   1.466       .  S
C696        C698   1.569       .  S
C696        C700   1.540       .  S
C696        C699   1.559       .  S
C696       C1229   1.507       .  S
C697        C701   1.550       .  S
C697        C703   1.530       .  S
C697        C702   1.558       .  S
C697       C1244   1.496       .  S
C698        C706   1.405       .  A
C698        C701   1.380       .  A
C699        C710   1.395       .  A
C699        C702   1.390       .  A
C700        C714   1.388       .  A
C700        C703   1.373       .  A
C701        C704   1.394       .  A
C702        C708   1.395       .  A
C703        C711   1.385       .  A
C704        N705   1.356       .  A
C704        H717   1.082       .  S
N705        C706   1.366       .  A
N705        C888   1.467       .  S
C706        H707   1.081       .  S
C708        N709   1.365       .  A
C708        H718   1.081       .  S
N709        C710   1.366       .  A
N709        C774   1.470       .  S
C710        H716   1.082       .  S
C711        N712   1.361       .  A
C711        H713   1.082       .  S
N712        C714   1.367       .  A
C714        H715   1.082       .  S
N719        C723   1.356       .  A
N719        H751   1.043       .  S
N720        C727   1.361       .  A
N720        C728   1.364       .  A
N721        C725   1.364       .  A
N721        H752   1.043       .  S
N722        C729   1.360       .  A
N722        C730   1.357       .  A
C723        C731   1.386       .  A
C723        C739   1.421       .  A
C724        C740   1.425       .  A
C724        C732   1.387       .  A
C725        C733   1.383       .  A
C725        C742   1.434       .  A
C726        C741   1.432       .  A
C726        C734   1.386       .  A
C727        C739   1.434       .  A
C727        C735   1.387       .  A
C728        C742   1.428       .  A
C728        C736   1.381       .  A
C729        C737   1.384       .  A
C729        C740   1.424       .  A
C730        C738   1.387       .  A
C730        C741   1.426       .  A
C731        H743   1.082       .  S
C732        H744   1.082       .  S
C733        H745   1.076       .  S
C734        H746   1.082       .  S
C735        C736   1.378       .  A
C735        H747   1.081       .  S
C736        H748   1.078       .  S
C737        C738   1.377       .  A
C737        H749   1.082       .  S
C738        H750   1.082       .  S
C740       N1020   1.462       .  S
C741        N803   1.464       .  S
C742        N997   1.478       .  S
N753        C757   1.358       .  A
N753        H785   1.041       .  S
N754        C761   1.358       .  A
N754        C762   1.359       .  A
N755        C759   1.361       .  A
N755        H786   1.041       .  S
N756        C763   1.362       .  A
N756        C764   1.361       .  A
C757        C765   1.386       .  A
C757        C773   1.425       .  A
C758        C774   1.424       .  A
C758        C766   1.385       .  A
C759        C767   1.387       .  A
C759        C776   1.427       .  A
C760        C775   1.425       .  A
C760        C768   1.386       .  A
C761        C773   1.424       .  A
C761        C769   1.386       .  A
C762        C776   1.424       .  A
C762        C770   1.385       .  A
C763        C771   1.380       .  A
C763        C774   1.428       .  A
C764        C772   1.385       .  A
C764        C775   1.428       .  A
C765        H777   1.081       .  S
C766        H778   1.082       .  S
C767        H779   1.082       .  S
C768        H780   1.082       .  S
C769        C770   1.378       .  A
C769        H781   1.082       .  S
C770        H782   1.082       .  S
C771        C772   1.377       .  A
C771        H783   1.076       .  S
C772        H784   1.082       .  S
C773        N974   1.460       .  S
C775        N948   1.463       .  S
C776        N853   1.463       .  S
C787        C789   1.561       .  S
C787        C791   1.548       .  S
C787        C790   1.543       .  S
C787       C1208   1.505       .  S
C788        C792   1.536       .  S
C788        C794   1.567       .  S
C788        C793   1.551       .  S
C788       C1217   1.509       .  S
C789        C797   1.401       .  A
C789        C792   1.379       .  A
C790        C801   1.388       .  A
C790        C793   1.378       .  A
C791        C805   1.392       .  A
C791        C794   1.387       .  A
C792        C795   1.384       .  A
C793        C799   1.398       .  A
C794        C802   1.397       .  A
C795        N796   1.357       .  A
C795        H808   1.082       .  S
N796        C797   1.371       .  A
N796        C890   1.466       .  S
C797        H798   1.082       .  S
C799        N800   1.370       .  A
C799        H809   1.082       .  S
N800        C801   1.363       .  A
N800        C830   1.469       .  S
C801        H807   1.082       .  S
C802        N803   1.364       .  A
C802        H804   1.081       .  S
N803        C805   1.360       .  A
C805        H806   1.082       .  S
N810        C815   1.359       .  A
N810        C814   1.362       .  A
N810        H842   1.042       .  S
N811       C2094   1.360       .  A
N811        C819   1.358       .  A
N812        C817   1.362       .  A
N812        C816   1.361       .  A
N812        H843   1.041       .  S
N813       C2096   1.361       .  A
N813        C821   1.363       .  A
C814        C822   1.381       .  A
C814        C830   1.425       .  A
C815        C831   1.428       .  A
C815        C823   1.387       .  A
C816        C824   1.386       .  A
C816        C833   1.428       .  A
C817        C832   1.427       .  A
C817        C825   1.383       .  A
C818        C830   1.425       .  A
C818        C826   1.384       .  A
C818       N2087   1.360   1_455  A
C819        C833   1.424       .  A
C819        C827   1.381       .  A
C820        C828   1.386       .  A
C820        C831   1.431       .  A
C820       N2089   1.361   1_455  A
C821        C829   1.382       .  A
C821        C832   1.430       .  A
C822        C823   1.379       .  A
C822        H834   1.077       .  S
C823        H835   1.082       .  S
C824        C825   1.381       .  A
C824        H836   1.082       .  S
C825        H837   1.080       .  S
C826       C2103   1.378   1_455  A
C826        H838   1.082       .  S
C827       C2102   1.378       .  A
C827        H839   1.075       .  S
C828       C2105   1.381   1_455  A
C828        H840   1.082       .  S
C829       C2104   1.381       .  A
C829        H841   1.078       .  S
C831        N994   1.466       .  S
C832        N857   1.473       .  S
C833        N951   1.464       .  S
C844        C846   1.553       .  S
C844        C848   1.541       .  S
C844        C847   1.574       .  S
C844       C1193   1.510       .  S
C845        C849   1.533       .  S
C845        C851   1.546       .  S
C845        C850   1.557       .  S
C845       C1181   1.501       .  S
C846        C854   1.394       .  A
C846        C849   1.372       .  A
C847        C858   1.401       .  A
C847        C850   1.397       .  A
C848        C862   1.392       .  A
C848        C851   1.374       .  A
C849        C852   1.388       .  A
C850        C856   1.394       .  A
C851        C859   1.389       .  A
C852        N853   1.362       .  A
C852        H865   1.082       .  S
N853        C854   1.363       .  A
C854        H855   1.082       .  S
C856        N857   1.365       .  A
C856        H866   1.082       .  S
N857        C858   1.371       .  A
C858        H864   1.081       .  S
C859        N860   1.355       .  A
C859        H861   1.081       .  S
N860        C862   1.366       .  A
N860        C924   1.460       .  S
C862        H863   1.082       .  S
N867        C872   1.358       .  A
N867        C871   1.359       .  A
N867        H899   1.041       .  S
N868        C875   1.360       .  A
N868        C876   1.359   1_554  A
N869        C874   1.366       .  A
N869        C873   1.364       .  A
N869        H900   1.040       .  S
N870        C877   1.364       .  A
N870        C878   1.364   1_554  A
C871        C879   1.385       .  A
C871        C887   1.421       .  A
C872        C888   1.423       .  A
C872        C880   1.386       .  A
C873        C881   1.387       .  A
C873        C890   1.437       .  A
C874        C889   1.438       .  A
C874        C882   1.386       .  A
C875        C887   1.425       .  A
C875        C883   1.385       .  A
C876        C890   1.425       .  A
C876        C884   1.386       .  A
C877        C885   1.385       .  A
C877        C888   1.434       .  A
C878        C886   1.386       .  A
C878        C889   1.435       .  A
C879        C880   1.379       .  A
C879        H891   1.082       .  S
C880        H892   1.082       .  S
C881        C882   1.384       .  A
C881        H893   1.082       .  S
C882        H894   1.081       .  S
C883        C884   1.375   1_554  A
C883        H895   1.082       .  S
C884        H896   1.082       .  S
C885        C886   1.380   1_554  A
C885        H897   1.082       .  S
C886        H898   1.082       .  S
C887       N1013   1.462       .  S
C889        N944   1.478       .  S
N901        C906   1.361       .  A
N901        C905   1.361       .  A
N901        H933   1.040       .  S
N902        C909   1.358       .  A
N902        C910   1.359   1_554  A
N903        C908   1.356       .  A
N903        C907   1.357       .  A
N903        H934   1.042       .  S
N904        C911   1.361       .  A
N904        C912   1.361   1_554  A
C905        C913   1.388       .  A
C905        C921   1.430       .  A
C906        C922   1.425       .  A
C906        C914   1.385       .  A
C907        C915   1.386       .  A
C907        C924   1.419       .  A
C908        C923   1.419       .  A
C908        C916   1.386       .  A
C909        C921   1.424       .  A
C909        C917   1.385       .  A
C910        C924   1.426       .  A
C910        C918   1.385       .  A
C911        C919   1.386       .  A
C911        C922   1.430       .  A
C912        C920   1.385       .  A
C912        C923   1.428       .  A
C913        C914   1.381       .  A
C913        H925   1.082       .  S
C914        H926   1.082       .  S
C915        C916   1.376       .  A
C915        H927   1.082       .  S
C916        H928   1.082       .  S
C917        C918   1.378   1_554  A
C917        H929   1.082       .  S
C918        H930   1.082       .  S
C919        C920   1.379   1_554  A
C919        H931   1.082       .  S
C920        H932   1.082       .  S
C921        N967   1.462       .  S
C923        N990   1.461       .  S
C935        C937   1.572       .  S
C935        C939   1.551       .  S
C935        C938   1.543       .  S
C935       C1169   1.506       .  S
C936        C940   1.549       .  S
C936        C942   1.569       .  S
C936        C941   1.541       .  S
C936       C1157   1.505       .  S
C937        C945   1.405       .  A
C937        C940   1.384       .  A
C938        C949   1.392       .  A
C938        C941   1.372       .  A
C939        C953   1.395       .  A
C939        C942   1.388       .  A
C940        C943   1.397       .  A
C941        C947   1.390       .  A
C942        C950   1.401       .  A
C943        N944   1.367       .  A
C943        H956   1.082       .  S
N944        C945   1.368       .  A
C945        H946   1.080       .  S
C947        N948   1.361       .  A
C947        H957   1.082       .  S
N948        C949   1.366       .  A
C949        H955   1.082       .  S
C950        N951   1.359       .  A
C950        H952   1.079       .  S
N951        C953   1.362       .  A
C953        H954   1.082       .  S
C958        C960   1.539       .  S
C958        C962   1.552       .  S
C958        C961   1.547       .  S
C958       C1145   1.505       .  S
C959        C963   1.550       .  S
C959        C965   1.545       .  S
C959        C964   1.564       .  S
C959       C1133   1.514       .  S
C960        C968   1.385       .  A
C960        C963   1.377       .  A
C961        C972   1.389       .  A
C961        C964   1.391       .  A
C962        C976   1.395       .  A
C962        C965   1.382       .  A
C963        C966   1.396       .  A
C964        C970   1.395       .  A
C965        C973   1.387       .  A
C966        N967   1.368       .  A
C966        H979   1.082       .  S
N967        C968   1.359       .  A
C968        H969   1.082       .  S
C970        N971   1.358       .  A
C970        H980   1.079       .  S
N971        C972   1.362       .  A
C972        H978   1.082       .  S
C973        N974   1.361       .  A
C973        H975   1.082       .  S
N974        C976   1.361       .  A
C976        H977   1.081       .  S
C981        C983   1.562       .  S
C981        C985   1.574       .  S
C981        C984   1.545       .  S
C981       C1112   1.518       .  S
C982        C986   1.530       .  S
C982        C988   1.549       .  S
C982        C987   1.557       .  S
C982       C1124   1.499       .  S
C983        C991   1.398       .  A
C983        C986   1.374       .  A
C984        C995   1.387       .  A
C984        C987   1.380       .  A
C985        C999   1.407       .  A
C985        C988   1.390       .  A
C986        C989   1.387       .  A
C987        C993   1.399       .  A
C988        C996   1.389       .  A
C989        N990   1.356       .  A
C989       H1002   1.082       .  S
N990        C991   1.365       .  A
C991        H992   1.081       .  S
C993        N994   1.364       .  A
C993       H1003   1.081       .  S
N994        C995   1.363       .  A
C995       H1001   1.082       .  S
C996        N997   1.363       .  A
C996        H998   1.082       .  S
N997        C999   1.376       .  A
C999       H1000   1.082       .  S
C1004      C1006   1.549       .  S
C1004      C1008   1.562       .  S
C1004      C1007   1.539       .  S
C1004      C1097   1.500       .  S
C1005      C1009   1.553       .  S
C1005      C1011   1.533       .  S
C1005      C1010   1.560       .  S
C1005      C1085   1.499       .  S
C1006      C1014   1.394       .  A
C1006      C1009   1.378       .  A
C1007      C1018   1.384       .  A
C1007      C1010   1.384       .  A
C1008      C1022   1.400       .  A
C1008      C1011   1.379       .  A
C1009      C1012   1.391       .  A
C1010      C1016   1.400       .  A
C1011      C1019   1.384       .  A
C1012      N1013   1.359       .  A
C1012      H1025   1.082       .  S
N1013      C1014   1.364       .  A
C1014      H1015   1.082       .  S
C1016      N1017   1.370       .  A
C1016      H1026   1.081       .  S
N1017      C1018   1.360       .  A
C1018      H1024   1.082       .  S
C1019      N1020   1.360       .  A
C1019      H1021   1.082       .  S
N1020      C1022   1.366       .  A
C1022      H1023   1.082       .  S
O1027      C1035   1.252       .  A
O1027     Co2323   1.971   1_455  S
O1028      C1036   1.248       .  A
O1028     Co1048   1.927       .  S
O1029      C1037   1.263       .  A
O1029     Co1049   2.002       .  S
O1030      C1038   1.235       .  A
O1030     Co1050   1.938       .  S
O1031      C1037   1.243       .  A
O1031     Co2324   1.912   1_455  S
O1032      C1038   1.247       .  A
O1032     Co1047   1.980       .  S
O1033      C1036   1.266       .  A
O1033     Co1050   2.002   1_556  S
O1034      C1035   1.242       .  A
O1034     Co1049   1.936   1_554  S
C1035      C1268   1.460       .  S
C1036      C1184   1.442       .  S
C1037      C1121   1.443       .  S
C1038      C1136   1.440       .  S
O1039      C1052   1.281       .  A
O1040      C1053   1.269       .  A
O1040     Co1686   2.019   1_465  S
O1041      C1054   1.270       .  A
O1042      C1055   1.251       .  A
O1043      C1055   1.258       .  A
O1044      C1054   1.278       .  A
O1044     Co1685   1.995   1_455  S
O1045      C1052   1.269       .  A
O1046      C1053   1.244       .  A
Co1047     O2303   1.971       .  S
Co1047     O1682   1.995       .  S
Co1047     O1051   2.213   1_554  S
Co1048     O2307   1.912       .  S
Co1048     O1678   2.019       .  S
Co1048     O1051   2.042       .  S
Co1049     O2327   1.930   1_455  S
Co1050     O1051   1.911   1_554  S
O1051     Co2325   1.930       .  S
C1052      C1241   1.427       .  S
C1053      C1205   1.463       .  S
C1054      C1088   1.451       .  S
C1055      C1172   1.443       .  S
O1056      C1064   1.289       .  A
O1056     Co1076   2.069       .  S
O1057      C1065   1.270       .  A
O1057     Co1077   2.009       .  S
O1058      C1066   1.257       .  A
O1058     Co1078   1.932       .  S
O1059      C1067   1.242       .  A
O1059     Co1079   1.937       .  S
O1060      C1066   1.275       .  A
O1060     Co1077   2.017       .  S
O1061      C1067   1.256       .  A
O1061     Co1076   2.008       .  S
O1062      C1065   1.250       .  A
O1062     Co1079   1.931       .  S
O1063      C1064   1.265       .  A
O1063     Co1078   1.875       .  S
C1064      C1148   1.445       .  S
C1065      C1160   1.463       .  S
C1066      C1232   1.438       .  S
C1067      C1196   1.459       .  S
O1068      C1081   1.262       .  A
O1068     Co1076   1.934       .  S
O1069      C1082   1.240       .  A
O1069     Co1077   1.929       .  S
O1070      C1083   1.280       .  A
O1070     Co1078   2.054       .  S
O1071      C1084   1.268       .  A
O1071     Co1079   2.018       .  S
O1072      C1084   1.249       .  A
O1072     Co1077   1.927       .  S
O1073      C1083   1.264       .  A
O1073     Co1076   1.879       .  S
O1074      C1081   1.283       .  A
O1074     Co1079   2.034       .  S
O1075      C1082   1.261       .  A
O1075     Co1078   2.005       .  S
Co1076     O1080   1.976       .  S
Co1077     O1080   1.968       .  S
Co1078     O1080   1.976       .  S
Co1079     O1080   1.970       .  S
C1081      C1109   1.469       .  S
C1082      C1100   1.453       .  S
C1083      C1256   1.443       .  S
C1084      C1220   1.440       .  S
C1085      C1086   1.409       .  A
C1085      C1090   1.401       .  A
C1086      C1087   1.386       .  A
C1086      H1091   1.084       .  S
C1087      C1088   1.404       .  A
C1087      C1094   1.445       .  S
C1088      C1089   1.406       .  A
C1089      C1090   1.382       .  A
C1089      H1092   1.085       .  S
C1090      C1093   1.440       .  S
C1093      N1095   1.156       .  T
C1097      C1098   1.396       .  A
C1097      C1102   1.418       .  A
C1098      C1099   1.379       .  A
C1098      H1103   1.081       .  S
C1099      C1100   1.417       .  A
C1099      C1106   1.448       .  S
C1100      C1101   1.396       .  A
C1101      C1102   1.391       .  A
C1101      H1104   1.085       .  S
C1102      C1105   1.445       .  S
C1105      N1107   1.157       .  T
C1106      N1108   1.158       .  T
C1109      C1110   1.407       .  A
C1109      C1114   1.404       .  A
C1110      C1111   1.394       .  A
C1110      H1115   1.084       .  S
C1111      C1112   1.410       .  A
C1111      C1118   1.443       .  S
C1112      C1113   1.410       .  A
C1113      C1114   1.390       .  A
C1113      H1116   1.076       .  S
C1114      C1117   1.445       .  S
C1117      N1119   1.157       .  T
C1118      N1120   1.157       .  T
C1121      C1122   1.392       .  A
C1121      C1126   1.410       .  A
C1122      C1123   1.388       .  A
C1122      H1127   1.085       .  S
C1123      C1124   1.422       .  A
C1123      C1130   1.443       .  S
C1124      C1125   1.399       .  A
C1125      C1126   1.377       .  A
C1125      H1128   1.078       .  S
C1126      C1129   1.448       .  S
C1129      N1131   1.157       .  T
C1130      N1132   1.157       .  T
C1133      C1134   1.405       .  A
C1133      C1138   1.420       .  A
C1134      C1135   1.385       .  A
C1134      H1139   1.070       .  S
C1135      C1136   1.396       .  A
C1135      C1142   1.443       .  S
C1136      C1137   1.395       .  A
C1137      C1138   1.392       .  A
C1137      H1140   1.086       .  S
C1138      C1141   1.446       .  S
C1141      N1143   1.157       .  T
C1142      N1144   1.156       .  T
C1145      C1146   1.403       .  A
C1145      C1150   1.420       .  A
C1146      C1147   1.382       .  A
C1146      H1151   1.076       .  S
C1147      C1148   1.403       .  A
C1147      C1154   1.445       .  S
C1148      C1149   1.395       .  A
C1149      C1150   1.388       .  A
C1149      H1152   1.086       .  S
C1150      C1153   1.443       .  S
C1153      N1155   1.157       .  T
C1154      N1156   1.157       .  T
C1157      C1158   1.391       .  A
C1157      C1162   1.416       .  A
C1158      C1159   1.379       .  A
C1158      H1163   1.073       .  S
C1159      C1160   1.416       .  A
C1159      C1166   1.447       .  S
C1160      C1161   1.402       .  A
C1161      C1162   1.390       .  A
C1161      H1164   1.082       .  S
C1162      C1165   1.447       .  S
C1165      N1167   1.157       .  T
C1166      N1168   1.157       .  T
C1169      C1170   1.392       .  A
C1169      C1174   1.421       .  A
C1170      C1171   1.379       .  A
C1170      H1175   1.076       .  S
C1171      C1172   1.406       .  A
C1171      C1178   1.439       .  S
C1172      C1173   1.394       .  A
C1173      C1174   1.394       .  A
C1173      H1176   1.085       .  S
C1174      C1177   1.443       .  S
C1177      N1179   1.157       .  T
C1178      N1180   1.156       .  T
C1181      C1182   1.411       .  A
C1181      C1186   1.406       .  A
C1182      C1183   1.382       .  A
C1182      H1187   1.079       .  S
C1183      C1184   1.395       .  A
C1183      C1190   1.444       .  S
C1184      C1185   1.406       .  A
C1185      C1186   1.384       .  A
C1185      H1188   1.086       .  S
C1186      C1189   1.443       .  S
C1189      N1191   1.157       .  T
C1190      N1192   1.157       .  T
C1193      C1194   1.415       .  A
C1193      C1198   1.404       .  A
C1194      C1195   1.391       .  A
C1194      H1199   1.083       .  S
C1195      C1196   1.400       .  A
C1195      C1202   1.444       .  S
C1196      C1197   1.407       .  A
C1197      C1198   1.389       .  A
C1197      H1200   1.084       .  S
C1198      C1201   1.441       .  S
C1201      N1203   1.157       .  T
C1202      N1204   1.157       .  T
C1205      C1206   1.397       .  A
C1205      C1210   1.416       .  A
C1206      C1207   1.391       .  A
C1206      H1211   1.085       .  S
C1207      C1208   1.419       .  A
C1207      C1214   1.445       .  S
C1208      C1209   1.398       .  A
C1209      C1210   1.387       .  A
C1209      H1212   1.082       .  S
C1210      C1213   1.444       .  S
C1213      N1215   1.157   1_556  T
C1214      N1216   1.157       .  T
C1217      C1218   1.400       .  A
C1217      C1222   1.422       .  A
C1218      C1219   1.379       .  A
C1218      H1223   1.074       .  S
C1219      C1220   1.405       .  A
C1219      C1226   1.445       .  S
C1220      C1221   1.392       .  A
C1221      C1222   1.395       .  A
C1221      H1224   1.082       .  S
C1222      C1225   1.443       .  S
C1225      N1227   1.157       .  T
C1226      N1228   1.157       .  T
C1229      C1230   1.401       .  A
C1229      C1234   1.415       .  A
C1230      C1231   1.383       .  A
C1230      H1235   1.079       .  S
C1231      C1232   1.404       .  A
C1231      C1238   1.445       .  S
C1232      C1233   1.393       .  A
C1233      C1234   1.392       .  A
C1233      H1236   1.085       .  S
C1234      C1237   1.441       .  S
C1237      N1239   1.156       .  T
C1238      N1240   1.157       .  T
C1241      C1242   1.400       .  A
C1241      C1246   1.396       .  A
C1242      C1243   1.386       .  A
C1242      H1247   1.086       .  S
C1243      C1244   1.406       .  A
C1243      C1250   1.443       .  S
C1244      C1245   1.408       .  A
C1245      C1246   1.381       .  A
C1245      H1248   1.084       .  S
C1246      C1249   1.443       .  S
C1249      N1251   1.157   1_554  T
C1250      N1252   1.157       .  T
C1253      C1254   1.404       .  A
C1253      C1258   1.408       .  A
C1254      C1255   1.377       .  A
C1254      H1259   1.080       .  S
C1255      C1256   1.399       .  A
C1255      C1262   1.443       .  S
C1256      C1257   1.407       .  A
C1257      C1258   1.391       .  A
C1257      H1260   1.085       .  S
C1258      C1261   1.444       .  S
C1261      N1263   1.157       .  T
C1262      N1264   1.156       .  T
C1265      C1266   1.395       .  A
C1265      C1270   1.412       .  A
C1266      C1267   1.379       .  A
C1266      H1271   1.078       .  S
C1267      C1268   1.411       .  A
C1267      C1274   1.441       .  S
C1268      C1269   1.405       .  A
C1269      C1270   1.390       .  A
C1269      H1272   1.085       .  S
C1270      C1273   1.445       .  S
C1273      N1275   1.157       .  T
C1274      N1276   1.156   1_554  T
C1277      C1279   1.567       .  S
C1277      C1281   1.552       .  S
C1277      C1280   1.538       .  S
C1277      C1903   1.501       .  S
C1278      C1282   1.553       .  S
C1278      C1284   1.555       .  S
C1278      C1283   1.534       .  S
C1278      C1891   1.500       .  S
C1279      C1287   1.396       .  A
C1279      C1282   1.390       .  A
C1280      C1291   1.390       .  A
C1280      C1283   1.372       .  A
C1281      C1295   1.398       .  A
C1281      C1284   1.380       .  A
C1282      C1285   1.396       .  A
C1283      C1289   1.387       .  A
C1284      C1292   1.390       .  A
C1285      N1286   1.365       .  A
C1285      H1298   1.082       .  S
N1286      C1287   1.360       .  A
N1286      C1560   1.465       .  S
C1287      H1288   1.081       .  S
C1289      N1290   1.363       .  A
C1289      H1299   1.082       .  S
N1290      C1291   1.366       .  A
N1290      C1320   1.463       .  S
C1291      H1297   1.082       .  S
C1292      N1293   1.355       .  A
C1292      H1294   1.082       .  S
N1293      C1295   1.366       .  A
N1293      C1377   1.462       .  S
C1295      H1296   1.082       .  S
N1300      C1305   1.359       .  A
N1300      H1332   1.040       .  S
N1301      C1308   1.360       .  A
N1301      C1309   1.361       .  A
N1302      C1307   1.361       .  A
N1302      H1333   1.041       .  S
N1303      C1310   1.356       .  A
N1303      C1311   1.357       .  A
C1304      C1312   1.387       .  A
C1304      C1320   1.427       .  A
C1305      C1321   1.425       .  A
C1305      C1313   1.386       .  A
C1306      C1314   1.384       .  A
C1306      C1323   1.426       .  A
C1307      C1322   1.425       .  A
C1307      C1315   1.385       .  A
C1308      C1320   1.429       .  A
C1308      C1316   1.386       .  A
C1309      C1323   1.429       .  A
C1309      C1317   1.386       .  A
C1310      C1318   1.380       .  A
C1310      C1321   1.417       .  A
C1311      C1319   1.384       .  A
C1311      C1322   1.417       .  A
C1312      H1324   1.082       .  S
C1313      H1325   1.082       .  S
C1314      H1326   1.079       .  S
C1315      H1327   1.082       .  S
C1316      C1317   1.378       .  A
C1316      H1328   1.082       .  S
C1317      H1329   1.082       .  S
C1318      C1319   1.371       .  A
C1318      H1330   1.074       .  S
C1319      H1331   1.082       .  S
C1321      N1609   1.459       .  S
C1322      N1350   1.460       .  S
C1323      N1655   1.466       .  S
C1334      C1336   1.569       .  S
C1334      C1338   1.540       .  S
C1334      C1337   1.559       .  S
C1334      C1867   1.507       .  S
C1335      C1339   1.550       .  S
C1335      C1341   1.530       .  S
C1335      C1340   1.558       .  S
C1335      C1882   1.496       .  S
C1336      C1344   1.405       .  A
C1336      C1339   1.380       .  A
C1337      C1348   1.395       .  A
C1337      C1340   1.390       .  A
C1338      C1352   1.388       .  A
C1338      C1341   1.373       .  A
C1339      C1342   1.394       .  A
C1340      C1346   1.395       .  A
C1341      C1349   1.385       .  A
C1342      N1343   1.356       .  A
C1342      H1355   1.082       .  S
N1343      C1344   1.366       .  A
N1343      C1526   1.467       .  S
C1344      H1345   1.081       .  S
C1346      N1347   1.365       .  A
C1346      H1356   1.081       .  S
N1347      C1348   1.366       .  A
N1347      C1412   1.470       .  S
C1348      H1354   1.082       .  S
C1349      N1350   1.361       .  A
C1349      H1351   1.082       .  S
N1350      C1352   1.367       .  A
C1352      H1353   1.082       .  S
N1357      C2000   1.359   1_545  A
N1357      C1361   1.356       .  A
N1357      H1389   1.043       .  S
N1358      C1365   1.361       .  A
N1358      C1366   1.364       .  A
N1359      C2002   1.363   1_545  A
N1359      C1363   1.364       .  A
N1359      H1390   1.043       .  S
N1360      C1367   1.360       .  A
N1360      C1368   1.357       .  A
C1361      C1369   1.386       .  A
C1361      C1377   1.421       .  A
C1362      C1378   1.425       .  A
C1362      C1370   1.387       .  A
C1362      N1995   1.359       .  A
C1363      C1371   1.383       .  A
C1363      C1380   1.434       .  A
C1364      C1379   1.432       .  A
C1364      C1372   1.386       .  A
C1364      N1997   1.363       .  A
C1365      C1377   1.434       .  A
C1365      C1373   1.387       .  A
C1366      C1380   1.428       .  A
C1366      C1374   1.381       .  A
C1367      C1375   1.384       .  A
C1367      C1378   1.424       .  A
C1368      C1376   1.387       .  A
C1368      C1379   1.426       .  A
C1369      C2008   1.380   1_545  A
C1369      H1381   1.082       .  S
C1370      C2007   1.380       .  A
C1370      H1382   1.082       .  S
C1371      C2010   1.382   1_545  A
C1371      H1383   1.076       .  S
C1372      C2009   1.382       .  A
C1372      H1384   1.082       .  S
C1373      C1374   1.378       .  A
C1373      H1385   1.081       .  S
C1374      H1386   1.078       .  S
C1375      C1376   1.377       .  A
C1375      H1387   1.082       .  S
C1376      H1388   1.082       .  S
C1378      N1658   1.462       .  S
C1379      N1441   1.464       .  S
C1380      N1635   1.478       .  S
N1391      C2034   1.361   1_545  A
N1391      C1395   1.358       .  A
N1391      H1423   1.041       .  S
N1392      C1399   1.358       .  A
N1392      C1400   1.359       .  A
N1393      C2036   1.359   1_545  A
N1393      C1397   1.361       .  A
N1393      H1424   1.041       .  S
N1394      C1401   1.362       .  A
N1394      C1402   1.361       .  A
C1395      C1403   1.386       .  A
C1395      C1411   1.425       .  A
C1396      C1412   1.424       .  A
C1396      C1404   1.385       .  A
C1396      N2029   1.361       .  A
C1397      C1405   1.387       .  A
C1397      C1414   1.427       .  A
C1398      C1413   1.425       .  A
C1398      C1406   1.386       .  A
C1398      N2031   1.359       .  A
C1399      C1411   1.424       .  A
C1399      C1407   1.386       .  A
C1400      C1414   1.424       .  A
C1400      C1408   1.385       .  A
C1401      C1409   1.380       .  A
C1401      C1412   1.428       .  A
C1402      C1410   1.385       .  A
C1402      C1413   1.428       .  A
C1403      C2042   1.379   1_545  A
C1403      H1415   1.081       .  S
C1404      C2041   1.379       .  A
C1404      H1416   1.082       .  S
C1405      C2044   1.380   1_545  A
C1405      H1417   1.082       .  S
C1406      C2043   1.380       .  A
C1406      H1418   1.082       .  S
C1407      C1408   1.378       .  A
C1407      H1419   1.082       .  S
C1408      H1420   1.082       .  S
C1409      C1410   1.377       .  A
C1409      H1421   1.076       .  S
C1410      H1422   1.082       .  S
C1411      N1612   1.460       .  S
C1413      N1586   1.463       .  S
C1414      N1491   1.463       .  S
C1425      C1427   1.561       .  S
C1425      C1429   1.548       .  S
C1425      C1428   1.543       .  S
C1425      C1846   1.505       .  S
C1426      C1430   1.536       .  S
C1426      C1432   1.567       .  S
C1426      C1431   1.551       .  S
C1426      C1855   1.509       .  S
C1427      C1435   1.401       .  A
C1427      C1430   1.379       .  A
C1428      C1439   1.388       .  A
C1428      C1431   1.378       .  A
C1429      C1443   1.392       .  A
C1429      C1432   1.387       .  A
C1430      C1433   1.384       .  A
C1431      C1437   1.398       .  A
C1432      C1440   1.397       .  A
C1433      N1434   1.357       .  A
C1433      H1446   1.082       .  S
N1434      C1435   1.371       .  A
N1434      C1528   1.466       .  S
C1435      H1436   1.082       .  S
C1437      N1438   1.370       .  A
C1437      H1447   1.082       .  S
N1438      C1439   1.363       .  A
N1438      C1468   1.469       .  S
C1439      H1445   1.082       .  S
C1440      N1441   1.364       .  A
C1440      H1442   1.081       .  S
N1441      C1443   1.360       .  A
C1443      H1444   1.082       .  S
N1448      C1453   1.359       .  A
N1448      C1452   1.362       .  A
N1448      H1480   1.042       .  S
N1449      C1457   1.358       .  A
N1450      C1455   1.362       .  A
N1450      C1454   1.361       .  A
N1450      H1481   1.041       .  S
N1451      C1459   1.363       .  A
C1452      C1460   1.381       .  A
C1452      C1468   1.425       .  A
C1453      C1469   1.428       .  A
C1453      C1461   1.387       .  A
C1454      C1462   1.386       .  A
C1454      C1471   1.428       .  A
C1455      C1470   1.427       .  A
C1455      C1463   1.383       .  A
C1456      C1468   1.425       .  A
C1456      C1464   1.384       .  A
C1457      C1471   1.424       .  A
C1457      C1465   1.381       .  A
C1458      C1466   1.386       .  A
C1458      C1469   1.431       .  A
C1459      C1467   1.382       .  A
C1459      C1470   1.430       .  A
C1460      C1461   1.379       .  A
C1460      H1472   1.077       .  S
C1461      H1473   1.082       .  S
C1462      C1463   1.381       .  A
C1462      H1474   1.082       .  S
C1463      H1475   1.080       .  S
C1464      H1476   1.082       .  S
C1465      H1477   1.075       .  S
C1466      H1478   1.082       .  S
C1467      H1479   1.078       .  S
C1469      N1632   1.466       .  S
C1470      N1495   1.473       .  S
C1471      N1589   1.464       .  S
C1482      C1484   1.553       .  S
C1482      C1486   1.541       .  S
C1482      C1485   1.574       .  S
C1482      C1831   1.510       .  S
C1483      C1487   1.533       .  S
C1483      C1489   1.546       .  S
C1483      C1488   1.557       .  S
C1483      C1819   1.501       .  S
C1484      C1492   1.394       .  A
C1484      C1487   1.372       .  A
C1485      C1496   1.401       .  A
C1485      C1488   1.397       .  A
C1486      C1500   1.392       .  A
C1486      C1489   1.374       .  A
C1487      C1490   1.388       .  A
C1488      C1494   1.394       .  A
C1489      C1497   1.389       .  A
C1490      N1491   1.362       .  A
C1490      H1503   1.082       .  S
N1491      C1492   1.363       .  A
C1492      H1493   1.082       .  S
C1494      N1495   1.365       .  A
C1494      H1504   1.082       .  S
N1495      C1496   1.371       .  A
C1496      H1502   1.081       .  S
C1497      N1498   1.355       .  A
C1497      H1499   1.081       .  S
N1498      C1500   1.366       .  A
N1498      C1562   1.460       .  S
C1500      H1501   1.082       .  S
N1505      C1510   1.358       .  A
N1505      C1509   1.359       .  A
N1505      H1537   1.041       .  S
N1506      C1513   1.360       .  A
N1506      C1514   1.359   1_554  A
N1507      C1512   1.366       .  A
N1507      C1511   1.364       .  A
N1507      H1538   1.040       .  S
N1508      C1515   1.364       .  A
N1508      C1516   1.364   1_554  A
C1509      C1517   1.385       .  A
C1509      C1525   1.421       .  A
C1510      C1526   1.423       .  A
C1510      C1518   1.386       .  A
C1511      C1519   1.387       .  A
C1511      C1528   1.437       .  A
C1512      C1527   1.438       .  A
C1512      C1520   1.386       .  A
C1513      C1525   1.425       .  A
C1513      C1521   1.385       .  A
C1514      C1528   1.425       .  A
C1514      C1522   1.386       .  A
C1515      C1523   1.385       .  A
C1515      C1526   1.434       .  A
C1516      C1524   1.386       .  A
C1516      C1527   1.435       .  A
C1517      C1518   1.379       .  A
C1517      H1529   1.082       .  S
C1518      H1530   1.082       .  S
C1519      C1520   1.384       .  A
C1519      H1531   1.082       .  S
C1520      H1532   1.081       .  S
C1521      C1522   1.375   1_554  A
C1521      H1533   1.082       .  S
C1522      H1534   1.082       .  S
C1523      C1524   1.380   1_554  A
C1523      H1535   1.082       .  S
C1524      H1536   1.082       .  S
C1525      N1651   1.462       .  S
C1527      N1582   1.478       .  S
N1539      C1544   1.361       .  A
N1539      C1543   1.361       .  A
N1539      H1571   1.040       .  S
N1540      C1547   1.358       .  A
N1540      C1548   1.359   1_554  A
N1541      C1546   1.356       .  A
N1541      C1545   1.357       .  A
N1541      H1572   1.042       .  S
N1542      C1549   1.361       .  A
N1542      C1550   1.361   1_554  A
C1543      C1551   1.388       .  A
C1543      C1559   1.430       .  A
C1544      C1560   1.425       .  A
C1544      C1552   1.385       .  A
C1545      C1553   1.386       .  A
C1545      C1562   1.419       .  A
C1546      C1561   1.419       .  A
C1546      C1554   1.386       .  A
C1547      C1559   1.424       .  A
C1547      C1555   1.385       .  A
C1548      C1562   1.426       .  A
C1548      C1556   1.385       .  A
C1549      C1557   1.386       .  A
C1549      C1560   1.430       .  A
C1550      C1558   1.385       .  A
C1550      C1561   1.428       .  A
C1551      C1552   1.381       .  A
C1551      H1563   1.082       .  S
C1552      H1564   1.082       .  S
C1553      C1554   1.376       .  A
C1553      H1565   1.082       .  S
C1554      H1566   1.082       .  S
C1555      C1556   1.378   1_554  A
C1555      H1567   1.082       .  S
C1556      H1568   1.082       .  S
C1557      C1558   1.379   1_554  A
C1557      H1569   1.082       .  S
C1558      H1570   1.082       .  S
C1559      N1605   1.462       .  S
C1561      N1628   1.461       .  S
C1573      C1575   1.572       .  S
C1573      C1577   1.551       .  S
C1573      C1576   1.543       .  S
C1573      C1807   1.506       .  S
C1574      C1578   1.549       .  S
C1574      C1580   1.569       .  S
C1574      C1579   1.541       .  S
C1574      C1795   1.505       .  S
C1575      C1583   1.405       .  A
C1575      C1578   1.384       .  A
C1576      C1587   1.392       .  A
C1576      C1579   1.372       .  A
C1577      C1591   1.395       .  A
C1577      C1580   1.388       .  A
C1578      C1581   1.397       .  A
C1579      C1585   1.390       .  A
C1580      C1588   1.401       .  A
C1581      N1582   1.367       .  A
C1581      H1594   1.082       .  S
N1582      C1583   1.368       .  A
C1583      H1584   1.080       .  S
C1585      N1586   1.361       .  A
C1585      H1595   1.082       .  S
N1586      C1587   1.366       .  A
C1587      H1593   1.082       .  S
C1588      N1589   1.359       .  A
C1588      H1590   1.079       .  S
N1589      C1591   1.362       .  A
C1591      H1592   1.082       .  S
C1596      C1598   1.539       .  S
C1596      C1600   1.552       .  S
C1596      C1599   1.547       .  S
C1596      C1783   1.505       .  S
C1597      C1601   1.550       .  S
C1597      C1603   1.545       .  S
C1597      C1602   1.564       .  S
C1597      C1771   1.514       .  S
C1598      C1606   1.385       .  A
C1598      C1601   1.377       .  A
C1599      C1610   1.389       .  A
C1599      C1602   1.391       .  A
C1600      C1614   1.395       .  A
C1600      C1603   1.382       .  A
C1601      C1604   1.396       .  A
C1602      C1608   1.395       .  A
C1603      C1611   1.387       .  A
C1604      N1605   1.368       .  A
C1604      H1617   1.082       .  S
N1605      C1606   1.359       .  A
C1606      H1607   1.082       .  S
C1608      N1609   1.358       .  A
C1608      H1618   1.079       .  S
N1609      C1610   1.362       .  A
C1610      H1616   1.082       .  S
C1611      N1612   1.361       .  A
C1611      H1613   1.082       .  S
N1612      C1614   1.361       .  A
C1614      H1615   1.081       .  S
C1619      C1621   1.562       .  S
C1619      C1623   1.574       .  S
C1619      C1622   1.545       .  S
C1619      C1750   1.518       .  S
C1620      C1624   1.530       .  S
C1620      C1626   1.549       .  S
C1620      C1625   1.557       .  S
C1620      C1762   1.499       .  S
C1621      C1629   1.398       .  A
C1621      C1624   1.374       .  A
C1622      C1633   1.387       .  A
C1622      C1625   1.380       .  A
C1623      C1637   1.407       .  A
C1623      C1626   1.390       .  A
C1624      C1627   1.387       .  A
C1625      C1631   1.399       .  A
C1626      C1634   1.389       .  A
C1627      N1628   1.356       .  A
C1627      H1640   1.082       .  S
N1628      C1629   1.365       .  A
C1629      H1630   1.081       .  S
C1631      N1632   1.364       .  A
C1631      H1641   1.081       .  S
N1632      C1633   1.363       .  A
C1633      H1639   1.082       .  S
C1634      N1635   1.363       .  A
C1634      H1636   1.082       .  S
N1635      C1637   1.376       .  A
C1637      H1638   1.082       .  S
C1642      C1644   1.549       .  S
C1642      C1646   1.562       .  S
C1642      C1645   1.539       .  S
C1642      C1735   1.500       .  S
C1643      C1647   1.553       .  S
C1643      C1649   1.533       .  S
C1643      C1648   1.560       .  S
C1643      C1723   1.499       .  S
C1644      C1652   1.394       .  A
C1644      C1647   1.378       .  A
C1645      C1656   1.384       .  A
C1645      C1648   1.384       .  A
C1646      C1660   1.400       .  A
C1646      C1649   1.379       .  A
C1647      C1650   1.391       .  A
C1648      C1654   1.400       .  A
C1649      C1657   1.384       .  A
C1650      N1651   1.359       .  A
C1650      H1663   1.082       .  S
N1651      C1652   1.364       .  A
C1652      H1653   1.082       .  S
C1654      N1655   1.370       .  A
C1654      H1664   1.081       .  S
N1655      C1656   1.360       .  A
C1656      H1662   1.082       .  S
C1657      N1658   1.360       .  A
C1657      H1659   1.082       .  S
N1658      C1660   1.366       .  A
C1660      H1661   1.082       .  S
O1665      C1673   1.252       .  A
O1666      C1674   1.248       .  A
O1666     Co1686   1.927       .  S
O1667      C1675   1.263       .  A
O1667     Co1687   2.002   1_545  S
O1668      C1676   1.235       .  A
O1668     Co1688   1.938   1_545  S
O1669      C1675   1.243       .  A
O1670      C1676   1.247       .  A
O1670     Co1685   1.980   1_545  S
O1671      C1674   1.266       .  A
O1671     Co1688   2.002   1_546  S
O1672      C1673   1.242       .  A
O1672     Co1687   1.936   1_544  S
C1673      C1906   1.460       .  S
C1674      C1822   1.442       .  S
C1675      C1759   1.443       .  S
C1676      C1774   1.440       .  S
O1677      C1690   1.281       .  A
O1677     Co2323   2.013       .  S
O1678      C1691   1.269       .  A
O1679      C1692   1.270       .  A
O1679     Co2325   1.907   1_554  S
O1680      C1693   1.251       .  A
O1680     Co2326   1.971   1_556  S
O1681      C1693   1.258       .  A
O1681     Co2324   1.990       .  S
O1682      C1692   1.278       .  A
O1683      C1690   1.269       .  A
O1683     Co2326   1.886       .  S
O1684      C1691   1.244       .  A
O1684     Co2325   1.960       .  S
Co1685     O2315   2.013       .  S
Co1685     O1689   2.213   1_564  S
Co1686     O2319   1.990   1_545  S
Co1686     O1689   2.042       .  S
Co1687     O2317   1.907   1_556  S
Co1687     O2322   1.960       .  S
Co1688     O2318   1.971   1_554  S
Co1688     O2321   1.886       .  S
Co1688     O1689   1.911   1_564  S
C1690      C1879   1.427       .  S
C1691      C1843   1.463       .  S
C1692      C1726   1.451       .  S
C1693      C1810   1.443       .  S
O1694      C1702   1.289       .  A
O1694     Co1714   2.069       .  S
O1695      C1703   1.270       .  A
O1695     Co1715   2.009       .  S
O1696      C1704   1.257       .  A
O1696     Co1716   1.932       .  S
O1697      C1705   1.242       .  A
O1697     Co1717   1.937       .  S
O1698      C1704   1.275       .  A
O1698     Co1715   2.017       .  S
O1699      C1705   1.256       .  A
O1699     Co1714   2.008       .  S
O1700      C1703   1.250       .  A
O1700     Co1717   1.931       .  S
O1701      C1702   1.265       .  A
O1701     Co1716   1.875       .  S
C1702      C1786   1.445       .  S
C1703      C1798   1.463       .  S
C1704      C1870   1.438       .  S
C1705      C1834   1.459       .  S
O1706      C1719   1.262       .  A
O1706     Co1714   1.934       .  S
O1707      C1720   1.240       .  A
O1707     Co1715   1.929       .  S
O1708      C1721   1.280       .  A
O1708     Co1716   2.054       .  S
O1709      C1722   1.268       .  A
O1709     Co1717   2.018       .  S
O1710      C1722   1.249       .  A
O1710     Co1715   1.927       .  S
O1711      C1721   1.264       .  A
O1711     Co1714   1.879       .  S
O1712      C1719   1.283       .  A
O1712     Co1717   2.034       .  S
O1713      C1720   1.261       .  A
O1713     Co1716   2.005       .  S
Co1714     O1718   1.976       .  S
Co1715     O1718   1.968       .  S
Co1716     O1718   1.976       .  S
Co1717     O1718   1.970       .  S
C1719      C1747   1.469       .  S
C1720      C1738   1.453       .  S
C1721      C1894   1.443       .  S
C1722      C1858   1.440       .  S
C1723      C1724   1.409       .  A
C1723      C1728   1.401       .  A
C1724      C1725   1.386       .  A
C1724      H1729   1.084       .  S
C1725      C1726   1.404       .  A
C1725      C1732   1.445       .  S
C1726      C1727   1.406       .  A
C1727      C1728   1.382       .  A
C1727      H1730   1.085       .  S
C1728      C1731   1.440       .  S
C1731      N1733   1.156       .  T
C1732      N2372   1.158       .  T
N1734      C2370   1.158       .  T
C1735      C1736   1.396       .  A
C1735      C1740   1.418       .  A
C1736      C1737   1.379       .  A
C1736      H1741   1.081       .  S
C1737      C1738   1.417       .  A
C1737      C1744   1.448       .  S
C1738      C1739   1.396       .  A
C1739      C1740   1.391       .  A
C1739      H1742   1.085       .  S
C1740      C1743   1.445       .  S
C1743      N1745   1.157       .  T
C1744      N1746   1.158       .  T
C1747      C1748   1.407       .  A
C1747      C1752   1.404       .  A
C1748      C1749   1.394       .  A
C1748      H1753   1.084       .  S
C1749      C1750   1.410       .  A
C1749      C1756   1.443       .  S
C1750      C1751   1.410       .  A
C1751      C1752   1.390       .  A
C1751      H1754   1.076       .  S
C1752      C1755   1.445       .  S
C1755      N1757   1.157       .  T
C1756      N1758   1.157       .  T
C1759      C1760   1.392       .  A
C1759      C1764   1.410       .  A
C1760      C1761   1.388       .  A
C1760      H1765   1.085       .  S
C1761      C1762   1.422       .  A
C1761      C1768   1.443       .  S
C1762      C1763   1.399       .  A
C1763      C1764   1.377       .  A
C1763      H1766   1.078       .  S
C1764      C1767   1.448       .  S
C1767      N1769   1.157       .  T
C1768      N1770   1.157       .  T
C1771      C1772   1.405       .  A
C1771      C1776   1.420       .  A
C1772      C1773   1.385       .  A
C1772      H1777   1.070       .  S
C1773      C1774   1.396       .  A
C1773      C1780   1.443       .  S
C1774      C1775   1.395       .  A
C1775      C1776   1.392       .  A
C1775      H1778   1.086       .  S
C1776      C1779   1.446       .  S
C1779      N1781   1.157       .  T
C1780      N1782   1.156       .  T
C1783      C1784   1.403       .  A
C1783      C1788   1.420       .  A
C1784      C1785   1.382       .  A
C1784      H1789   1.076       .  S
C1785      C1786   1.403       .  A
C1785      C1792   1.445       .  S
C1786      C1787   1.395       .  A
C1787      C1788   1.388       .  A
C1787      H1790   1.086       .  S
C1788      C1791   1.443       .  S
C1791      N1793   1.157       .  T
C1792      N1794   1.157       .  T
C1795      C1796   1.391       .  A
C1795      C1800   1.416       .  A
C1796      C1797   1.379       .  A
C1796      H1801   1.073       .  S
C1797      C1798   1.416       .  A
C1797      C1804   1.447       .  S
C1798      C1799   1.402       .  A
C1799      C1800   1.390       .  A
C1799      H1802   1.082       .  S
C1800      C1803   1.447       .  S
C1803      N1805   1.157       .  T
C1804      N1806   1.157       .  T
C1807      C1808   1.392       .  A
C1807      C1812   1.421       .  A
C1808      C1809   1.379       .  A
C1808      H1813   1.076       .  S
C1809      C1810   1.406       .  A
C1809      C1816   1.439       .  S
C1810      C1811   1.394       .  A
C1811      C1812   1.394       .  A
C1811      H1814   1.085       .  S
C1812      C1815   1.443       .  S
C1815      N1817   1.157       .  T
C1816      N1818   1.156       .  T
C1819      C1820   1.411       .  A
C1819      C1824   1.406       .  A
C1820      C1821   1.382       .  A
C1820      H1825   1.079       .  S
C1821      C1822   1.395       .  A
C1821      C1828   1.444       .  S
C1822      C1823   1.406       .  A
C1823      C1824   1.384       .  A
C1823      H1826   1.086       .  S
C1824      C1827   1.443       .  S
C1827      N1829   1.157       .  T
C1828      N1830   1.157       .  T
C1831      C1832   1.415       .  A
C1831      C1836   1.404       .  A
C1832      C1833   1.391       .  A
C1832      H1837   1.083       .  S
C1833      C1834   1.400       .  A
C1833      C1840   1.444       .  S
C1834      C1835   1.407       .  A
C1835      C1836   1.389       .  A
C1835      H1838   1.084       .  S
C1836      C1839   1.441       .  S
C1839      N1841   1.157       .  T
C1840      N1842   1.157       .  T
C1843      C1844   1.397       .  A
C1843      C1848   1.416       .  A
C1844      C1845   1.391       .  A
C1844      H1849   1.085       .  S
C1845      C1846   1.419       .  A
C1845      C1852   1.445       .  S
C1846      C1847   1.398       .  A
C1847      C1848   1.387       .  A
C1847      H1850   1.082       .  S
C1848      C1851   1.444       .  S
C1851      N1853   1.157   1_556  T
C1852      N1854   1.157       .  T
C1855      C1856   1.400       .  A
C1855      C1860   1.422       .  A
C1856      C1857   1.379       .  A
C1856      H1861   1.074       .  S
C1857      C1858   1.405       .  A
C1857      C1864   1.445       .  S
C1858      C1859   1.392       .  A
C1859      C1860   1.395       .  A
C1859      H1862   1.082       .  S
C1860      C1863   1.443       .  S
C1863      N1865   1.157       .  T
C1864      N1866   1.157       .  T
C1867      C1868   1.401       .  A
C1867      C1872   1.415       .  A
C1868      C1869   1.383       .  A
C1868      H1873   1.079       .  S
C1869      C1870   1.404       .  A
C1869      C1876   1.445       .  S
C1870      C1871   1.393       .  A
C1871      C1872   1.392       .  A
C1871      H1874   1.085       .  S
C1872      C1875   1.441       .  S
C1875      N1877   1.156       .  T
C1876      N1878   1.157       .  T
C1879      C1880   1.400       .  A
C1879      C1884   1.396       .  A
C1880      C1881   1.386       .  A
C1880      H1885   1.086       .  S
C1881      C1882   1.406       .  A
C1881      C1888   1.443       .  S
C1882      C1883   1.408       .  A
C1883      C1884   1.381       .  A
C1883      H1886   1.084       .  S
C1884      C1887   1.443       .  S
C1887      N1889   1.157   1_554  T
C1888      N1890   1.157       .  T
C1891      C1892   1.404       .  A
C1891      C1896   1.408       .  A
C1892      C1893   1.377       .  A
C1892      H1897   1.080       .  S
C1893      C1894   1.399       .  A
C1893      C1900   1.443       .  S
C1894      C1895   1.407       .  A
C1895      C1896   1.391       .  A
C1895      H1898   1.085       .  S
C1896      C1899   1.444       .  S
C1899      N1901   1.157       .  T
C1900      N1902   1.156       .  T
C1903      C1904   1.395       .  A
C1903      C1908   1.412       .  A
C1904      C1905   1.379       .  A
C1904      H1909   1.078       .  S
C1905      C1906   1.411       .  A
C1905      C1912   1.441       .  S
C1906      C1907   1.405       .  A
C1907      C1908   1.390       .  A
C1907      H1910   1.085       .  S
C1908      C1911   1.445       .  S
C1911      N1913   1.157       .  T
C1912      N1914   1.156   1_554  T
C1915      C1917   1.567       .  S
C1915      C1919   1.552       .  S
C1915      C1918   1.538       .  S
C1915      C2541   1.501       .  S
C1916      C1920   1.553       .  S
C1916      C1922   1.555       .  S
C1916      C1921   1.534       .  S
C1916      C2529   1.500       .  S
C1917      C1925   1.396       .  A
C1917      C1920   1.390       .  A
C1918      C1929   1.390       .  A
C1918      C1921   1.372       .  A
C1919      C1933   1.398       .  A
C1919      C1922   1.380       .  A
C1920      C1923   1.396       .  A
C1921      C1927   1.387       .  A
C1922      C1930   1.390       .  A
C1923      N1924   1.365       .  A
C1923      H1936   1.082       .  S
N1924      C1925   1.360       .  A
N1924      C2198   1.465       .  S
C1925      H1926   1.081       .  S
C1927      N1928   1.363       .  A
C1927      H1937   1.082       .  S
N1928      C1929   1.366       .  A
N1928      C1958   1.463       .  S
C1929      H1935   1.082       .  S
C1930      N1931   1.355       .  A
C1930      H1932   1.082       .  S
N1931      C1933   1.366       .  A
N1931      C2015   1.462       .  S
C1933      H1934   1.082       .  S
N1938      C1943   1.359       .  A
N1938      H1970   1.040       .  S
N1939      C1946   1.360       .  A
N1939      C1947   1.361       .  A
N1940      C1945   1.361       .  A
N1940      H1971   1.041       .  S
N1941      C1948   1.356       .  A
N1941      C1949   1.357       .  A
C1942      C1950   1.387       .  A
C1942      C1958   1.427       .  A
C1943      C1959   1.425       .  A
C1943      C1951   1.386       .  A
C1944      C1952   1.384       .  A
C1944      C1961   1.426       .  A
C1945      C1960   1.425       .  A
C1945      C1953   1.385       .  A
C1946      C1958   1.429       .  A
C1946      C1954   1.386       .  A
C1947      C1961   1.429       .  A
C1947      C1955   1.386       .  A
C1948      C1956   1.380       .  A
C1948      C1959   1.417       .  A
C1949      C1957   1.384       .  A
C1949      C1960   1.417       .  A
C1950      H1962   1.082       .  S
C1951      H1963   1.082       .  S
C1952      H1964   1.079       .  S
C1953      H1965   1.082       .  S
C1954      C1955   1.378       .  A
C1954      H1966   1.082       .  S
C1955      H1967   1.082       .  S
C1956      C1957   1.371       .  A
C1956      H1968   1.074       .  S
C1957      H1969   1.082       .  S
C1959      N2247   1.459       .  S
C1960      N1988   1.460       .  S
C1961      N2293   1.466       .  S
C1972      C1974   1.569       .  S
C1972      C1976   1.540       .  S
C1972      C1975   1.559       .  S
C1972      C2505   1.507       .  S
C1973      C1977   1.550       .  S
C1973      C1979   1.530       .  S
C1973      C1978   1.558       .  S
C1973      C2520   1.496       .  S
C1974      C1982   1.405       .  A
C1974      C1977   1.380       .  A
C1975      C1986   1.395       .  A
C1975      C1978   1.390       .  A
C1976      C1990   1.388       .  A
C1976      C1979   1.373       .  A
C1977      C1980   1.394       .  A
C1978      C1984   1.395       .  A
C1979      C1987   1.385       .  A
C1980      N1981   1.356       .  A
C1980      H1993   1.082       .  S
N1981      C1982   1.366       .  A
N1981      C2164   1.467       .  S
C1982      H1983   1.081       .  S
C1984      N1985   1.365       .  A
C1984      H1994   1.081       .  S
N1985      C1986   1.366       .  A
N1985      C2050   1.470       .  S
C1986      H1992   1.082       .  S
C1987      N1988   1.361       .  A
C1987      H1989   1.082       .  S
N1988      C1990   1.367       .  A
C1990      H1991   1.082       .  S
N1995      C1999   1.356       .  A
N1995      H2027   1.043       .  S
N1996      C2003   1.361       .  A
N1996      C2004   1.364       .  A
N1997      C2001   1.364       .  A
N1997      H2028   1.043       .  S
N1998      C2005   1.360       .  A
N1998      C2006   1.357       .  A
C1999      C2007   1.386       .  A
C1999      C2015   1.421       .  A
C2000      C2016   1.425       .  A
C2000      C2008   1.387       .  A
C2001      C2009   1.383       .  A
C2001      C2018   1.434       .  A
C2002      C2017   1.432       .  A
C2002      C2010   1.386       .  A
C2003      C2015   1.434       .  A
C2003      C2011   1.387       .  A
C2004      C2018   1.428       .  A
C2004      C2012   1.381       .  A
C2005      C2013   1.384       .  A
C2005      C2016   1.424       .  A
C2006      C2014   1.387       .  A
C2006      C2017   1.426       .  A
C2007      H2019   1.082       .  S
C2008      H2020   1.082       .  S
C2009      H2021   1.076       .  S
C2010      H2022   1.082       .  S
C2011      C2012   1.378       .  A
C2011      H2023   1.081       .  S
C2012      H2024   1.078       .  S
C2013      C2014   1.377       .  A
C2013      H2025   1.082       .  S
C2014      H2026   1.082       .  S
C2016      N2296   1.462       .  S
C2017      N2079   1.464       .  S
C2018      N2273   1.478       .  S
N2029      C2033   1.358       .  A
N2029      H2061   1.041       .  S
N2030      C2037   1.358       .  A
N2030      C2038   1.359       .  A
N2031      C2035   1.361       .  A
N2031      H2062   1.041       .  S
N2032      C2039   1.362       .  A
N2032      C2040   1.361       .  A
C2033      C2041   1.386       .  A
C2033      C2049   1.425       .  A
C2034      C2050   1.424       .  A
C2034      C2042   1.385       .  A
C2035      C2043   1.387       .  A
C2035      C2052   1.427       .  A
C2036      C2051   1.425       .  A
C2036      C2044   1.386       .  A
C2037      C2049   1.424       .  A
C2037      C2045   1.386       .  A
C2038      C2052   1.424       .  A
C2038      C2046   1.385       .  A
C2039      C2047   1.380       .  A
C2039      C2050   1.428       .  A
C2040      C2048   1.385       .  A
C2040      C2051   1.428       .  A
C2041      H2053   1.081       .  S
C2042      H2054   1.082       .  S
C2043      H2055   1.082       .  S
C2044      H2056   1.082       .  S
C2045      C2046   1.378       .  A
C2045      H2057   1.082       .  S
C2046      H2058   1.082       .  S
C2047      C2048   1.377       .  A
C2047      H2059   1.076       .  S
C2048      H2060   1.082       .  S
C2049      N2250   1.460       .  S
C2051      N2224   1.463       .  S
C2052      N2129   1.463       .  S
C2063      C2065   1.561       .  S
C2063      C2067   1.548       .  S
C2063      C2066   1.543       .  S
C2063      C2484   1.505       .  S
C2064      C2068   1.536       .  S
C2064      C2070   1.567       .  S
C2064      C2069   1.551       .  S
C2064      C2493   1.509       .  S
C2065      C2073   1.401       .  A
C2065      C2068   1.379       .  A
C2066      C2077   1.388       .  A
C2066      C2069   1.378       .  A
C2067      C2081   1.392       .  A
C2067      C2070   1.387       .  A
C2068      C2071   1.384       .  A
C2069      C2075   1.398       .  A
C2070      C2078   1.397       .  A
C2071      N2072   1.357       .  A
C2071      H2084   1.082       .  S
N2072      C2073   1.371       .  A
N2072      C2166   1.466       .  S
C2073      H2074   1.082       .  S
C2075      N2076   1.370       .  A
C2075      H2085   1.082       .  S
N2076      C2077   1.363       .  A
N2076      C2106   1.469       .  S
C2077      H2083   1.082       .  S
C2078      N2079   1.364       .  A
C2078      H2080   1.081       .  S
N2079      C2081   1.360       .  A
C2081      H2082   1.082       .  S
N2086      C2091   1.359       .  A
N2086      C2090   1.362       .  A
N2086      H2118   1.042       .  S
N2087      C2095   1.358       .  A
N2088      C2093   1.362       .  A
N2088      C2092   1.361       .  A
N2088      H2119   1.041       .  S
N2089      C2097   1.363       .  A
C2090      C2098   1.381       .  A
C2090      C2106   1.425       .  A
C2091      C2107   1.428       .  A
C2091      C2099   1.387       .  A
C2092      C2100   1.386       .  A
C2092      C2109   1.428       .  A
C2093      C2108   1.427       .  A
C2093      C2101   1.383       .  A
C2094      C2106   1.425       .  A
C2094      C2102   1.384       .  A
C2095      C2109   1.424       .  A
C2095      C2103   1.381       .  A
C2096      C2104   1.386       .  A
C2096      C2107   1.431       .  A
C2097      C2105   1.382       .  A
C2097      C2108   1.430       .  A
C2098      C2099   1.379       .  A
C2098      H2110   1.077       .  S
C2099      H2111   1.082       .  S
C2100      C2101   1.381       .  A
C2100      H2112   1.082       .  S
C2101      H2113   1.080       .  S
C2102      H2114   1.082       .  S
C2103      H2115   1.075       .  S
C2104      H2116   1.082       .  S
C2105      H2117   1.078       .  S
C2107      N2270   1.466       .  S
C2108      N2133   1.473       .  S
C2109      N2227   1.464       .  S
C2120      C2122   1.553       .  S
C2120      C2124   1.541       .  S
C2120      C2123   1.574       .  S
C2120      C2469   1.510       .  S
C2121      C2125   1.533       .  S
C2121      C2127   1.546       .  S
C2121      C2126   1.557       .  S
C2121      C2457   1.501       .  S
C2122      C2130   1.394       .  A
C2122      C2125   1.372       .  A
C2123      C2134   1.401       .  A
C2123      C2126   1.397       .  A
C2124      C2138   1.392       .  A
C2124      C2127   1.374       .  A
C2125      C2128   1.388       .  A
C2126      C2132   1.394       .  A
C2127      C2135   1.389       .  A
C2128      N2129   1.362       .  A
C2128      H2141   1.082       .  S
N2129      C2130   1.363       .  A
C2130      H2131   1.082       .  S
C2132      N2133   1.365       .  A
C2132      H2142   1.082       .  S
N2133      C2134   1.371       .  A
C2134      H2140   1.081       .  S
C2135      N2136   1.355       .  A
C2135      H2137   1.081       .  S
N2136      C2138   1.366       .  A
N2136      C2200   1.460       .  S
C2138      H2139   1.082       .  S
N2143      C2148   1.358       .  A
N2143      C2147   1.359       .  A
N2143      H2175   1.041       .  S
N2144      C2151   1.360       .  A
N2144      C2152   1.359   1_554  A
N2145      C2150   1.366       .  A
N2145      C2149   1.364       .  A
N2145      H2176   1.040       .  S
N2146      C2153   1.364       .  A
N2146      C2154   1.364   1_554  A
C2147      C2155   1.385       .  A
C2147      C2163   1.421       .  A
C2148      C2164   1.423       .  A
C2148      C2156   1.386       .  A
C2149      C2157   1.387       .  A
C2149      C2166   1.437       .  A
C2150      C2165   1.438       .  A
C2150      C2158   1.386       .  A
C2151      C2163   1.425       .  A
C2151      C2159   1.385       .  A
C2152      C2166   1.425       .  A
C2152      C2160   1.386       .  A
C2153      C2161   1.385       .  A
C2153      C2164   1.434       .  A
C2154      C2162   1.386       .  A
C2154      C2165   1.435       .  A
C2155      C2156   1.379       .  A
C2155      H2167   1.082       .  S
C2156      H2168   1.082       .  S
C2157      C2158   1.384       .  A
C2157      H2169   1.082       .  S
C2158      H2170   1.081       .  S
C2159      C2160   1.375   1_554  A
C2159      H2171   1.082       .  S
C2160      H2172   1.082       .  S
C2161      C2162   1.380   1_554  A
C2161      H2173   1.082       .  S
C2162      H2174   1.082       .  S
C2163      N2289   1.462       .  S
C2165      N2220   1.478       .  S
N2177      C2182   1.361       .  A
N2177      C2181   1.361       .  A
N2177      H2209   1.040       .  S
N2178      C2185   1.358       .  A
N2178      C2186   1.359   1_554  A
N2179      C2184   1.356       .  A
N2179      C2183   1.357       .  A
N2179      H2210   1.042       .  S
N2180      C2187   1.361       .  A
N2180      C2188   1.361   1_554  A
C2181      C2189   1.388       .  A
C2181      C2197   1.430       .  A
C2182      C2198   1.425       .  A
C2182      C2190   1.385       .  A
C2183      C2191   1.386       .  A
C2183      C2200   1.419       .  A
C2184      C2199   1.419       .  A
C2184      C2192   1.386       .  A
C2185      C2197   1.424       .  A
C2185      C2193   1.385       .  A
C2186      C2200   1.426       .  A
C2186      C2194   1.385       .  A
C2187      C2195   1.386       .  A
C2187      C2198   1.430       .  A
C2188      C2196   1.385       .  A
C2188      C2199   1.428       .  A
C2189      C2190   1.381       .  A
C2189      H2201   1.082       .  S
C2190      H2202   1.082       .  S
C2191      C2192   1.376       .  A
C2191      H2203   1.082       .  S
C2192      H2204   1.082       .  S
C2193      C2194   1.378   1_554  A
C2193      H2205   1.082       .  S
C2194      H2206   1.082       .  S
C2195      C2196   1.379   1_554  A
C2195      H2207   1.082       .  S
C2196      H2208   1.082       .  S
C2197      N2243   1.462       .  S
C2199      N2266   1.461       .  S
C2211      C2213   1.572       .  S
C2211      C2215   1.551       .  S
C2211      C2214   1.543       .  S
C2211      C2445   1.506       .  S
C2212      C2216   1.549       .  S
C2212      C2218   1.569       .  S
C2212      C2217   1.541       .  S
C2212      C2433   1.505       .  S
C2213      C2221   1.405       .  A
C2213      C2216   1.384       .  A
C2214      C2225   1.392       .  A
C2214      C2217   1.372       .  A
C2215      C2229   1.395       .  A
C2215      C2218   1.388       .  A
C2216      C2219   1.397       .  A
C2217      C2223   1.390       .  A
C2218      C2226   1.401       .  A
C2219      N2220   1.367       .  A
C2219      H2232   1.082       .  S
N2220      C2221   1.368       .  A
C2221      H2222   1.080       .  S
C2223      N2224   1.361       .  A
C2223      H2233   1.082       .  S
N2224      C2225   1.366       .  A
C2225      H2231   1.082       .  S
C2226      N2227   1.359       .  A
C2226      H2228   1.079       .  S
N2227      C2229   1.362       .  A
C2229      H2230   1.082       .  S
C2234      C2236   1.539       .  S
C2234      C2238   1.552       .  S
C2234      C2237   1.547       .  S
C2234      C2421   1.505       .  S
C2235      C2239   1.550       .  S
C2235      C2241   1.545       .  S
C2235      C2240   1.564       .  S
C2235      C2409   1.514       .  S
C2236      C2244   1.385       .  A
C2236      C2239   1.377       .  A
C2237      C2248   1.389       .  A
C2237      C2240   1.391       .  A
C2238      C2252   1.395       .  A
C2238      C2241   1.382       .  A
C2239      C2242   1.396       .  A
C2240      C2246   1.395       .  A
C2241      C2249   1.387       .  A
C2242      N2243   1.368       .  A
C2242      H2255   1.082       .  S
N2243      C2244   1.359       .  A
C2244      H2245   1.082       .  S
C2246      N2247   1.358       .  A
C2246      H2256   1.079       .  S
N2247      C2248   1.362       .  A
C2248      H2254   1.082       .  S
C2249      N2250   1.361       .  A
C2249      H2251   1.082       .  S
N2250      C2252   1.361       .  A
C2252      H2253   1.081       .  S
C2257      C2259   1.562       .  S
C2257      C2261   1.574       .  S
C2257      C2260   1.545       .  S
C2257      C2388   1.518       .  S
C2258      C2262   1.530       .  S
C2258      C2264   1.549       .  S
C2258      C2263   1.557       .  S
C2258      C2400   1.499       .  S
C2259      C2267   1.398       .  A
C2259      C2262   1.374       .  A
C2260      C2271   1.387       .  A
C2260      C2263   1.380       .  A
C2261      C2275   1.407       .  A
C2261      C2264   1.390       .  A
C2262      C2265   1.387       .  A
C2263      C2269   1.399       .  A
C2264      C2272   1.389       .  A
C2265      N2266   1.356       .  A
C2265      H2278   1.082       .  S
N2266      C2267   1.365       .  A
C2267      H2268   1.081       .  S
C2269      N2270   1.364       .  A
C2269      H2279   1.081       .  S
N2270      C2271   1.363       .  A
C2271      H2277   1.082       .  S
C2272      N2273   1.363       .  A
C2272      H2274   1.082       .  S
N2273      C2275   1.376       .  A
C2275      H2276   1.082       .  S
C2280      C2282   1.549       .  S
C2280      C2284   1.562       .  S
C2280      C2283   1.539       .  S
C2280      C2373   1.500       .  S
C2281      C2285   1.553       .  S
C2281      C2287   1.533       .  S
C2281      C2286   1.560       .  S
C2281      C2361   1.499       .  S
C2282      C2290   1.394       .  A
C2282      C2285   1.378       .  A
C2283      C2294   1.384       .  A
C2283      C2286   1.384       .  A
C2284      C2298   1.400       .  A
C2284      C2287   1.379       .  A
C2285      C2288   1.391       .  A
C2286      C2292   1.400       .  A
C2287      C2295   1.384       .  A
C2288      N2289   1.359       .  A
C2288      H2301   1.082       .  S
N2289      C2290   1.364       .  A
C2290      H2291   1.082       .  S
C2292      N2293   1.370       .  A
C2292      H2302   1.081       .  S
N2293      C2294   1.360       .  A
C2294      H2300   1.082       .  S
C2295      N2296   1.360       .  A
C2295      H2297   1.082       .  S
N2296      C2298   1.366       .  A
C2298      H2299   1.082       .  S
O2303      C2311   1.252       .  A
O2304      C2312   1.248       .  A
O2304     Co2324   1.927       .  S
O2305      C2313   1.263       .  A
O2305     Co2325   2.002       .  S
O2306      C2314   1.235       .  A
O2306     Co2326   1.938       .  S
O2307      C2313   1.243       .  A
O2308      C2314   1.247       .  A
O2308     Co2323   1.980       .  S
O2309      C2312   1.266       .  A
O2309     Co2326   2.002   1_556  S
O2310      C2311   1.242       .  A
O2310     Co2325   1.936   1_554  S
C2311      C2544   1.460       .  S
C2312      C2460   1.442       .  S
C2313      C2397   1.443       .  S
C2314      C2412   1.440       .  S
O2315      C2328   1.281       .  A
O2316      C2329   1.269       .  A
O2317      C2330   1.270       .  A
O2318      C2331   1.251       .  A
O2319      C2331   1.258       .  A
O2320      C2330   1.278       .  A
O2321      C2328   1.269       .  A
O2322      C2329   1.244       .  A
Co2323     O2327   2.213   1_554  S
Co2324     O2327   2.042       .  S
Co2326     O2327   1.911   1_554  S
C2328      C2517   1.427       .  S
C2329      C2481   1.463       .  S
C2330      C2364   1.451       .  S
C2331      C2448   1.443       .  S
O2332      C2340   1.289       .  A
O2332     Co2352   2.069       .  S
O2333      C2341   1.270       .  A
O2333     Co2353   2.009       .  S
O2334      C2342   1.257       .  A
O2334     Co2354   1.932       .  S
O2335      C2343   1.242       .  A
O2335     Co2355   1.937       .  S
O2336      C2342   1.275       .  A
O2336     Co2353   2.017       .  S
O2337      C2343   1.256       .  A
O2337     Co2352   2.008       .  S
O2338      C2341   1.250       .  A
O2338     Co2355   1.931       .  S
O2339      C2340   1.265       .  A
O2339     Co2354   1.875       .  S
C2340      C2424   1.445       .  S
C2341      C2436   1.463       .  S
C2342      C2508   1.438       .  S
C2343      C2472   1.459       .  S
O2344      C2357   1.262       .  A
O2344     Co2352   1.934       .  S
O2345      C2358   1.240       .  A
O2345     Co2353   1.929       .  S
O2346      C2359   1.280       .  A
O2346     Co2354   2.054       .  S
O2347      C2360   1.268       .  A
O2347     Co2355   2.018       .  S
O2348      C2360   1.249       .  A
O2348     Co2353   1.927       .  S
O2349      C2359   1.264       .  A
O2349     Co2352   1.879       .  S
O2350      C2357   1.283       .  A
O2350     Co2355   2.034       .  S
O2351      C2358   1.261       .  A
O2351     Co2354   2.005       .  S
Co2352     O2356   1.976       .  S
Co2353     O2356   1.968       .  S
Co2354     O2356   1.976       .  S
Co2355     O2356   1.970       .  S
C2357      C2385   1.469       .  S
C2358      C2376   1.453       .  S
C2359      C2532   1.443       .  S
C2360      C2496   1.440       .  S
C2361      C2362   1.409       .  A
C2361      C2366   1.401       .  A
C2362      C2363   1.386       .  A
C2362      H2367   1.084       .  S
C2363      C2364   1.404       .  A
C2363      C2370   1.445       .  S
C2364      C2365   1.406       .  A
C2365      C2366   1.382       .  A
C2365      H2368   1.085       .  S
C2366      C2369   1.440       .  S
C2369      N2371   1.156       .  T
C2373      C2374   1.396       .  A
C2373      C2378   1.418       .  A
C2374      C2375   1.379       .  A
C2374      H2379   1.081       .  S
C2375      C2376   1.417       .  A
C2375      C2382   1.448       .  S
C2376      C2377   1.396       .  A
C2377      C2378   1.391       .  A
C2377      H2380   1.085       .  S
C2378      C2381   1.445       .  S
C2381      N2383   1.157       .  T
C2382      N2384   1.158       .  T
C2385      C2386   1.407       .  A
C2385      C2390   1.404       .  A
C2386      C2387   1.394       .  A
C2386      H2391   1.084       .  S
C2387      C2388   1.410       .  A
C2387      C2394   1.443       .  S
C2388      C2389   1.410       .  A
C2389      C2390   1.390       .  A
C2389      H2392   1.076       .  S
C2390      C2393   1.445       .  S
C2393      N2395   1.157       .  T
C2394      N2396   1.157       .  T
C2397      C2398   1.392       .  A
C2397      C2402   1.410       .  A
C2398      C2399   1.388       .  A
C2398      H2403   1.085       .  S
C2399      C2400   1.422       .  A
C2399      C2406   1.443       .  S
C2400      C2401   1.399       .  A
C2401      C2402   1.377       .  A
C2401      H2404   1.078       .  S
C2402      C2405   1.448       .  S
C2405      N2407   1.157       .  T
C2406      N2408   1.157       .  T
C2409      C2410   1.405       .  A
C2409      C2414   1.420       .  A
C2410      C2411   1.385       .  A
C2410      H2415   1.070       .  S
C2411      C2412   1.396       .  A
C2411      C2418   1.443       .  S
C2412      C2413   1.395       .  A
C2413      C2414   1.392       .  A
C2413      H2416   1.086       .  S
C2414      C2417   1.446       .  S
C2417      N2419   1.157       .  T
C2418      N2420   1.156       .  T
C2421      C2422   1.403       .  A
C2421      C2426   1.420       .  A
C2422      C2423   1.382       .  A
C2422      H2427   1.076       .  S
C2423      C2424   1.403       .  A
C2423      C2430   1.445       .  S
C2424      C2425   1.395       .  A
C2425      C2426   1.388       .  A
C2425      H2428   1.086       .  S
C2426      C2429   1.443       .  S
C2429      N2431   1.157       .  T
C2430      N2432   1.157       .  T
C2433      C2434   1.391       .  A
C2433      C2438   1.416       .  A
C2434      C2435   1.379       .  A
C2434      H2439   1.073       .  S
C2435      C2436   1.416       .  A
C2435      C2442   1.447       .  S
C2436      C2437   1.402       .  A
C2437      C2438   1.390       .  A
C2437      H2440   1.082       .  S
C2438      C2441   1.447       .  S
C2441      N2443   1.157       .  T
C2442      N2444   1.157       .  T
C2445      C2446   1.392       .  A
C2445      C2450   1.421       .  A
C2446      C2447   1.379       .  A
C2446      H2451   1.076       .  S
C2447      C2448   1.406       .  A
C2447      C2454   1.439       .  S
C2448      C2449   1.394       .  A
C2449      C2450   1.394       .  A
C2449      H2452   1.085       .  S
C2450      C2453   1.443       .  S
C2453      N2455   1.157       .  T
C2454      N2456   1.156       .  T
C2457      C2458   1.411       .  A
C2457      C2462   1.406       .  A
C2458      C2459   1.382       .  A
C2458      H2463   1.079       .  S
C2459      C2460   1.395       .  A
C2459      C2466   1.444       .  S
C2460      C2461   1.406       .  A
C2461      C2462   1.384       .  A
C2461      H2464   1.086       .  S
C2462      C2465   1.443       .  S
C2465      N2467   1.157       .  T
C2466      N2468   1.157       .  T
C2469      C2470   1.415       .  A
C2469      C2474   1.404       .  A
C2470      C2471   1.391       .  A
C2470      H2475   1.083       .  S
C2471      C2472   1.400       .  A
C2471      C2478   1.444       .  S
C2472      C2473   1.407       .  A
C2473      C2474   1.389       .  A
C2473      H2476   1.084       .  S
C2474      C2477   1.441       .  S
C2477      N2479   1.157       .  T
C2478      N2480   1.157       .  T
C2481      C2482   1.397       .  A
C2481      C2486   1.416       .  A
C2482      C2483   1.391       .  A
C2482      H2487   1.085       .  S
C2483      C2484   1.419       .  A
C2483      C2490   1.445       .  S
C2484      C2485   1.398       .  A
C2485      C2486   1.387       .  A
C2485      H2488   1.082       .  S
C2486      C2489   1.444       .  S
C2489      N2491   1.157   1_556  T
C2490      N2492   1.157       .  T
C2493      C2494   1.400       .  A
C2493      C2498   1.422       .  A
C2494      C2495   1.379       .  A
C2494      H2499   1.074       .  S
C2495      C2496   1.405       .  A
C2495      C2502   1.445       .  S
C2496      C2497   1.392       .  A
C2497      C2498   1.395       .  A
C2497      H2500   1.082       .  S
C2498      C2501   1.443       .  S
C2501      N2503   1.157       .  T
C2502      N2504   1.157       .  T
C2505      C2506   1.401       .  A
C2505      C2510   1.415       .  A
C2506      C2507   1.383       .  A
C2506      H2511   1.079       .  S
C2507      C2508   1.404       .  A
C2507      C2514   1.445       .  S
C2508      C2509   1.393       .  A
C2509      C2510   1.392       .  A
C2509      H2512   1.085       .  S
C2510      C2513   1.441       .  S
C2513      N2515   1.156       .  T
C2514      N2516   1.157       .  T
C2517      C2518   1.400       .  A
C2517      C2522   1.396       .  A
C2518      C2519   1.386       .  A
C2518      H2523   1.086       .  S
C2519      C2520   1.406       .  A
C2519      C2526   1.443       .  S
C2520      C2521   1.408       .  A
C2521      C2522   1.381       .  A
C2521      H2524   1.084       .  S
C2522      C2525   1.443       .  S
C2525      N2527   1.157   1_554  T
C2526      N2528   1.157       .  T
C2529      C2530   1.404       .  A
C2529      C2534   1.408       .  A
C2530      C2531   1.377       .  A
C2530      H2535   1.080       .  S
C2531      C2532   1.399       .  A
C2531      C2538   1.443       .  S
C2532      C2533   1.407       .  A
C2533      C2534   1.391       .  A
C2533      H2536   1.085       .  S
C2534      C2537   1.444       .  S
C2537      N2539   1.157       .  T
C2538      N2540   1.156       .  T
C2541      C2542   1.395       .  A
C2541      C2546   1.412       .  A
C2542      C2543   1.379       .  A
C2542      H2547   1.078       .  S
C2543      C2544   1.411       .  A
C2543      C2550   1.441       .  S
C2544      C2545   1.405       .  A
C2545      C2546   1.390       .  A
C2545      H2548   1.085       .  S
C2546      C2549   1.445       .  S
C2549      N2551   1.157       .  T
C2550      N2552   1.156   1_554  T
