geometry optimzed in LAMMPS
_audit_creation_date              2020-12-01 
_audit_creation_method            'lammps2cif' 
_symmetry_space_group_name_H-M    'P1' 
_symmetry_Int_Tables_number       1 
_symmetry_cell_setting            triclinic 
loop_ 
_symmetry_equiv_pos_as_xyz 
  x,y,z 
_cell_length_a                    28.27564364 
_cell_length_b                    30.88187120200042 
_cell_length_c                    42.05369810215214 
_cell_angle_alpha                 89.94136194004095 
_cell_angle_beta                  90.04790646875739 
_cell_angle_gamma                 90.11397605283125 
loop_ 
_atom_site_label 
_atom_site_type_symbol 
_atom_site_fract_x 
_atom_site_fract_y 
_atom_site_fract_z 
_atom_site_charge 
O1          O  0.84650720  0.41270881  0.11592169    -0.57500
C2          C  0.96148230  0.32744802  0.11687276     0.75200
O3          O  0.98392444  0.46693812  0.08712861    -0.58600
C4          C  0.83928829  0.45301655  0.11925741     0.75100
C5          C  0.96233934  0.43905189  0.18408512     0.77500
Cd6        Cd  0.93367947  0.41797959  0.12001585     1.37500
O7          O  0.91827468  0.33842394  0.11680817    -0.57500
O8          O  0.92399811  0.41993833  0.17759662    -0.56300
C9          C  0.96651820  0.45482751  0.06080418     0.77500
O10         O  0.98792771  0.44951468  0.16051621    -0.58700
O11         O  0.99080502  0.35831824  0.11794144    -0.57100
O12         O  0.87573887  0.47618980  0.12308982    -0.57100
O13         O  0.93517709  0.42564968  0.06243751    -0.56300
O14         O  0.64084623  0.56266903  0.11669237    -0.57500
C15         C  0.52415255  0.64624156  0.11337127     0.75200
O16         O  0.50697593  0.50797430  0.08276214    -0.58600
C17         C  0.64788113  0.52207489  0.11775910     0.75100
C18         C  0.52270309  0.53502545  0.18023497     0.77500
Cd19       Cd  0.55377726  0.55673236  0.11683329     1.37500
O20         O  0.56748045  0.63582148  0.11321179    -0.57500
O21         O  0.56192230  0.55322316  0.17456471    -0.56300
C22         C  0.52391088  0.52153297  0.05668210     0.77500
O23         O  0.49809446  0.52511850  0.15609326    -0.58700
O24         O  0.49518958  0.61505078  0.11496931    -0.57100
O25         O  0.61124126  0.49858342  0.11820101    -0.57100
O26         O  0.55409128  0.55168267  0.05881986    -0.56300
O27         O  0.06313187  0.63459391  0.88025474    -0.57500
C28         C  0.14533863  0.52121413  0.87804543     0.75200
O29         O  0.00128971  0.50887505  0.91016792    -0.58600
C30         C  0.01980750  0.64481291  0.88152949     0.75100
C31         C  0.02056732  0.53347461  0.81284286     0.77500
Cd32       Cd  0.05057319  0.55563051  0.87640957     1.37500
O33         O  0.13767035  0.56135264  0.87399360    -0.57500
O34         O  0.05797994  0.55458993  0.81846467    -0.56300
C35         C  0.01932197  0.52141810  0.93622247     0.77500
O36         O  0.99747110  0.52073280  0.83692485    -0.58700
O37         O  0.10898938  0.49774474  0.88133368    -0.57100
O38         O  0.99096491  0.61347550  0.88084919    -0.57100
O39         O  0.05127497  0.55003835  0.93411261    -0.56300
O40         O  0.34606138  0.41412086  0.87900640    -0.57500
C41         C  0.46400909  0.33168527  0.87762309     0.75200
O42         O  0.48032176  0.45652880  0.83148896    -0.58600
C43         C  0.33812674  0.45439186  0.87622026     0.75100
C44         C  0.46944704  0.45590206  0.93225425     0.77500
Cd45       Cd  0.43316161  0.42063182  0.87387422     1.37500
O46         O  0.42061234  0.34175530  0.87939877    -0.57500
O47         O  0.43671596  0.42800606  0.93096065    -0.56300
C48         C  0.45714605  0.43936705  0.80889490     0.77500
O49         O  0.48665690  0.46768056  0.90576720    -0.58700
O50         O  0.49245977  0.36300270  0.87457362    -0.57100
O51         O  0.37424045  0.47805904  0.87254869    -0.57100
O52         O  0.42342752  0.41477892  0.81684484    -0.56300
O53         O  0.13951598  0.40327767  0.38104694    -0.57500
C54         C  0.01915534  0.32401966  0.38012618     0.75200
O55         O  0.00502694  0.46146915  0.41073738    -0.58600
C56         C  0.14837569  0.44340593  0.37864004     0.75100
C57         C  0.02576972  0.43619466  0.31417735     0.77500
Cd58       Cd  0.05277182  0.41232797  0.37785176     1.37500
O59         O  0.06285184  0.33300774  0.38219477    -0.57500
O60         O  0.06075366  0.41212782  0.32020452    -0.56300
C61         C  0.01995613  0.44711873  0.43712163     0.77500
O62         O  0.00289617  0.45021255  0.33796737    -0.58700
O63         O  0.99178329  0.35607387  0.37729055    -0.57100
O64         O  0.11288534  0.46806883  0.37618775    -0.57100
O65         O  0.04990827  0.41682316  0.43574262    -0.56300
O66         O  0.34293181  0.56194082  0.37368340    -0.57500
C67         C  0.45798973  0.64741090  0.37651778     0.75200
O68         O  0.47661141  0.50974962  0.40865472    -0.58600
C69         C  0.33553814  0.52145227  0.37489853     0.75100
C70         C  0.46223573  0.53407774  0.31140721     0.77500
Cd71       Cd  0.42943327  0.55706189  0.37398474     1.37500
O72         O  0.41467949  0.63655308  0.37692446    -0.57500
O73         O  0.42172820  0.55005538  0.31628716    -0.56300
C74         C  0.45939819  0.52375942  0.43452021     0.77500
O75         O  0.48698030  0.52638775  0.33590064    -0.58700
O76         O  0.48701418  0.61646466  0.37509977    -0.57100
O77         O  0.37200506  0.49772830  0.37501957    -0.57100
O78         O  0.42911295  0.55356262  0.43191749    -0.56300
O79         O  0.91964465  0.63011168  0.61188554    -0.57500
C80         C  0.83467365  0.51908811  0.62031166     0.75200
O81         O  0.97779502  0.50080178  0.58626344    -0.58600
C82         C  0.96296440  0.63973401  0.61546324     0.75100
C83         C  0.96223590  0.53161566  0.68162817     0.77500
Cd84       Cd  0.93057526  0.55098277  0.61866268     1.37500
O85         O  0.84417326  0.55874955  0.61586960    -0.57500
O86         O  0.92512132  0.55316255  0.67601283    -0.56300
C87         C  0.96267700  0.51450539  0.55975807     0.77500
O88         O  0.98442962  0.51728997  0.65766997    -0.58700
O89         O  0.86990806  0.49454050  0.62465027    -0.57100
O90         O  0.99053032  0.60826019  0.62018048    -0.57100
O91         O  0.93281861  0.54489090  0.56086185    -0.56300
O92         O  0.56389476  0.33708987  0.61117512    -0.57500
C93         C  0.64462210  0.44641556  0.61743537     0.75200
O94         O  0.50504352  0.46599078  0.58124811    -0.58600
C95         C  0.52111340  0.32569263  0.61427025     0.75100
C96         C  0.51780544  0.43767844  0.67827527     0.77500
Cd97       Cd  0.54902668  0.41527685  0.61551729     1.37500
O98         O  0.63530764  0.40631934  0.61594740    -0.57500
O99         O  0.55744752  0.42057127  0.67268648    -0.56300
C100        C  0.51887010  0.44960988  0.55522845     0.77500
O101        O  0.49189924  0.44558093  0.65432303    -0.58700
O102        O  0.60935543  0.47162932  0.61771842    -0.57100
O103        O  0.49162377  0.35613320  0.61744087    -0.57100
O104        O  0.54563280  0.41709315  0.55760584    -0.56300
O105        O  0.41224445  0.13541787  0.61662198    -0.57500
C106        C  0.33369487  0.02161288  0.61738379     0.75200
O107        O  0.47565465  0.00780875  0.58352069    -0.58600
C108        C  0.45524798  0.14697460  0.61620225     0.75100
C109        C  0.46046803  0.03691184  0.68148326     0.77500
Cd110      Cd  0.42833401  0.05675904  0.61811591     1.37500
O111        O  0.34071119  0.06219346  0.61624997    -0.57500
O112        O  0.42131696  0.05496433  0.67565351    -0.56300
C113        C  0.46037687  0.02362840  0.55760931     0.77500
O114        O  0.48475689  0.02593425  0.65748725    -0.58700
O115        O  0.37032194  0.99834584  0.61938725    -0.57100
O116        O  0.48514879  0.11656073  0.61624114    -0.57100
O117        O  0.43160759  0.05463360  0.56031446    -0.56300
O118        O  0.13736482  0.90814188  0.61312390    -0.57500
C119        C  0.02261015  0.81993992  0.61212138     0.75200
O120        O  0.99742948  0.94407175  0.65761096    -0.58600
C121        C  0.14334182  0.94851996  0.61717502     0.75100
C122        C  0.01708693  0.94274872  0.55669610     0.77500
Cd123      Cd  0.04982666  0.90977880  0.61692921     1.37500
O124        O  0.06569260  0.83089990  0.61500197    -0.57500
O125        O  0.04910895  0.91444341  0.55905606    -0.56300
C126        C  0.01822375  0.92666763  0.68113097     0.77500
O127        O  0.99881756  0.95536578  0.58265620    -0.58700
O128        O  0.99305867  0.85055982  0.61114623    -0.57100
O129        O  0.10603551  0.97029469  0.62126119    -0.57100
O130        O  0.05253619  0.90213287  0.67452794    -0.56300
O131        O  0.83915429  0.06036589  0.37979675    -0.57500
C132        C  0.95642718  0.14404021  0.37980273     0.75200
O133        O  0.97493697  0.00590017  0.41026235    -0.58600
C134        C  0.83127633  0.02060590  0.37416451     0.75100
C135        C  0.95748973  0.03435003  0.31291092     0.77500
Cd136      Cd  0.92611456  0.05447627  0.37643375     1.37500
O137        O  0.91285377  0.13417154  0.38014083    -0.57500
O138        O  0.91954213  0.05453732  0.31862155    -0.56300
C139        C  0.95586822  0.01702740  0.43629034     0.77500
O140        O  0.98085640  0.02189631  0.33698760    -0.58700
O141        O  0.98469025  0.11254185  0.37813909    -0.57100
O142        O  0.86740898  0.99748531  0.36936925    -0.57100
O143        O  0.92416044  0.04564034  0.43425238    -0.56300
O144        O  0.55753915  0.84004208  0.37437458    -0.57500
C145        C  0.63845336  0.95368857  0.37332066     0.75200
O146        O  0.48494524  0.94948460  0.33555035    -0.58600
C147        C  0.51413069  0.82949922  0.37525469     0.75100
C148        C  0.51446646  0.95137387  0.43500484     0.77500
Cd149      Cd  0.54353801  0.91927158  0.37379865     1.37500
O150        O  0.63075021  0.91324929  0.37535119    -0.57500
O151        O  0.53970616  0.91798289  0.43175074    -0.56300
C152        C  0.51000408  0.94109390  0.31131807     0.77500
O153        O  0.50168766  0.96979909  0.40941091    -0.58700
O154        O  0.60214908  0.97735304  0.37132520    -0.57100
O155        O  0.48521131  0.86062896  0.37522735    -0.57100
O156        O  0.55005331  0.92450698  0.31653233    -0.56300
O157        O  0.83484817  0.90439997  0.87975991    -0.57500
C158        C  0.94975040  0.82211329  0.88010543     0.75200
O159        O  0.97733224  0.94011287  0.83480330    -0.58600
C160        C  0.82717494  0.94473592  0.87760420     0.75100
C161        C  0.95546643  0.94824049  0.93476656     0.77500
Cd162      Cd  0.92173950  0.91162970  0.87558600     1.37500
O163        O  0.90654585  0.83283894  0.87927208    -0.57500
O164        O  0.92695598  0.91667281  0.93366154    -0.56300
C165        C  0.95138118  0.93083676  0.81114273     0.77500
O166        O  0.96884510  0.96301400  0.90810633    -0.58700
O167        O  0.97912221  0.85300801  0.87883160    -0.57100
O168        O  0.86328081  0.96854753  0.87407669    -0.57100
O169        O  0.91162571  0.91425084  0.81753859    -0.56300
O170        O  0.56381089  0.13944387  0.87939122    -0.57500
C171        C  0.64185875  0.02517523  0.87844058     0.75200
O172        O  0.49846112  0.01154363  0.90955922    -0.58600
C173        C  0.52059771  0.15028549  0.88039257     0.75100
C174        C  0.51776745  0.03945813  0.81335814     0.77500
Cd175      Cd  0.54818309  0.06011150  0.87709947     1.37500
O176        O  0.63462822  0.06565940  0.87938653    -0.57500
O177        O  0.55696944  0.05756138  0.81920380    -0.56300
C178        C  0.51554020  0.02313445  0.93609762     0.77500
O179        O  0.49301703  0.02922256  0.83732436    -0.58700
O180        O  0.60546777  0.00137200  0.87664714    -0.57100
O181        O  0.49130676  0.11937514  0.88050539    -0.57100
O182        O  0.54724539  0.05208093  0.93510076    -0.56300
O183        O  0.05940468  0.13444290  0.11461936    -0.57500
C184        C  0.13940457  0.02036947  0.11508117     0.75200
O185        O  0.99160602  0.02192552  0.15715251    -0.58600
C186        C  0.01616133  0.14524480  0.11372508     0.75100
C187        C  0.01210372  0.01848760  0.05770221     0.77500
Cd188      Cd  0.04501648  0.05513426  0.11699539     1.37500
O189        O  0.13208752  0.06083592  0.11323581    -0.57500
O190        O  0.04370478  0.04750732  0.05893231    -0.56300
C191        C  0.01516928  0.03446405  0.18110088     0.77500
O192        O  0.99495574  0.00690484  0.08422433    -0.58700
O193        O  0.10310938  0.99681273  0.11832316    -0.57100
O194        O  0.98690769  0.11426897  0.11371308    -0.57100
O195        O  0.05307755  0.05472358  0.17518319    -0.56300
O196        O  0.41011013  0.83414149  0.11158580    -0.57500
C197        C  0.33016483  0.95004092  0.11516088     0.75200
O198        O  0.47059129  0.94896014  0.15829619    -0.58600
C199        C  0.45340498  0.82361823  0.11234200     0.75100
C200        C  0.45876292  0.95006899  0.05774314     0.77500
Cd201      Cd  0.42360459  0.91321594  0.11617734     1.37500
O202        O  0.33673048  0.90977307  0.11094393    -0.57500
O203        O  0.42470780  0.92344355  0.05860860    -0.56300
C204        C  0.44743855  0.93252710  0.18119318     0.77500
O205        O  0.47740418  0.95939376  0.08431222    -0.58700
O206        O  0.36697950  0.97244726  0.11974736    -0.57100
O207        O  0.48241933  0.85476436  0.11427281    -0.57100
O208        O  0.41392675  0.90743597  0.17364018    -0.56300
C209        C  0.22617212  0.02895569  0.12167885    -0.20000
C210        C  0.18791375  0.00186282  0.11407772    -0.06500
C211        C  0.19700587  0.95814085  0.10584377     0.14300
C212        C  0.24365973  0.94271976  0.10634770    -0.20000
C213        C  0.28193400  0.96949461  0.11464122    -0.06500
C214        C  0.27289711  0.01358253  0.12215566     0.14300
C215        C  0.31169216  0.04493881  0.13103501    -0.23400
H216        H  0.21940926  0.06246599  0.12780500     0.15600
H217        H  0.25018669  0.90919902  0.10015038     0.15600
C218        C  0.15821889  0.92748291  0.09573882    -0.23300
H219        H  0.29767203  0.07770614  0.13640300     0.05900
H220        H  0.33693301  0.04844729  0.11099088     0.09100
H221        H  0.33041975  0.03330632  0.15261803     0.09100
H222        H  0.13866647  0.94129908  0.07519831     0.09100
H223        H  0.13362550  0.92156152  0.11582431     0.09100
H224        H  0.17240085  0.89553441  0.08830925     0.05800
C225        C  0.44331471  0.96739933  0.00103669    -0.20000
C226        C  0.47458031  0.96930232  0.02703854    -0.06500
C227        C  0.51937906  0.98912367  0.02280248     0.14300
C228        C  0.53152676  0.00590775  0.99281670    -0.20000
C229        C  0.50022410  0.00391989  0.96685461    -0.06500
C230        C  0.45523769  0.98463248  0.97119533     0.14300
C231        C  0.41882484  0.98329262  0.94498916    -0.23400
H232        H  0.40872489  0.95276648  0.00415035     0.15600
H233        H  0.56604457  0.02065092  0.98961501     0.15600
C234        C  0.55499710  0.99230722  0.04939775    -0.23300
H235        H  0.38475915  0.96931596  0.95326484     0.05900
H236        H  0.43160985  0.96284208  0.92510969     0.09100
H237        H  0.41167435  0.01662728  0.93632037     0.09100
H238        H  0.56330011  0.95947854  0.05859961     0.09100
H239        H  0.54076605  0.01277397  0.06883022     0.09100
H240        H  0.58866538  0.00731364  0.04135397     0.05800
C241        C  0.94561960  0.95515166  0.99329353    -0.20000
C242        C  0.97121111  0.96658288  0.96584221    -0.06500
C243        C  0.01069926  0.99453455  0.96903258     0.14300
C244        C  0.02292482  0.01042268  0.99926424    -0.20000
C245        C  0.99694573  0.99946547  0.02668163    -0.06500
C246        C  0.95773699  0.97112156  0.02351325     0.14300
C247        C  0.92784206  0.95766036  0.05153136    -0.23400
H248        H  0.91539518  0.93376314  0.99111901     0.15600
H249        H  0.05325589  0.03169451  0.00140701     0.15600
C250        C  0.04080574  0.00749100  0.94099788    -0.23300
H251        H  0.89822746  0.93609698  0.04436093     0.05900
H252        H  0.91219772  0.98669050  0.06295111     0.09100
H253        H  0.94974101  0.93958000  0.06896358     0.09100
H254        H  0.01941767  0.02643633  0.92378602     0.09100
H255        H  0.05526568  0.97816013  0.92928160     0.09100
H256        H  0.07120873  0.02808111  0.94822224     0.05800
C257        C  0.77492102  0.00834449  0.87141201    -0.20000
C258        C  0.77910252  0.96410747  0.87886658    -0.06500
C259        C  0.73801020  0.94076204  0.88779091     0.14300
C260        C  0.69405563  0.96187173  0.88755025    -0.20000
C261        C  0.68990504  0.00591652  0.87943108    -0.06500
C262        C  0.73126297  0.02967888  0.87198083     0.14300
C263        C  0.73021607  0.07735517  0.86418671    -0.23400
H264        H  0.80618038  0.02666578  0.86500271     0.15600
H265        H  0.66263930  0.94377159  0.89400283     0.15600
C266        C  0.73975826  0.89403564  0.89818651    -0.23300
H267        H  0.76591909  0.09012909  0.85834655     0.05900
H268        H  0.71709411  0.09586873  0.88499173     0.09100
H269        H  0.70708484  0.08316725  0.84327990     0.09100
H270        H  0.76379948  0.89061883  0.91893101     0.09100
H271        H  0.75222023  0.87339955  0.87831349     0.09100
H272        H  0.70440941  0.88182478  0.90548142     0.05800
C273        C  0.44500396  0.93758088  0.27195344    -0.20000
C274        C  0.49253976  0.94711775  0.27844189    -0.06500
C275        C  0.52329492  0.95729572  0.25297005     0.14300
C276        C  0.50661278  0.95435524  0.22163449    -0.20000
C277        C  0.46026104  0.94079681  0.21492590    -0.06500
C278        C  0.42844963  0.93383829  0.24055969     0.14300
C279        C  0.37718702  0.92221318  0.23533644    -0.23400
H280        H  0.42129882  0.93045123  0.29153512     0.15600
H281        H  0.53076779  0.96080231  0.20219077     0.15600
C282        C  0.57373555  0.97139774  0.25851122    -0.23300
H283        H  0.35718388  0.92109501  0.25805093     0.05900
H284        H  0.37428937  0.88969856  0.22431165     0.09100
H285        H  0.36017766  0.94679880  0.21982417     0.09100
H286        H  0.59477480  0.94436365  0.26852464     0.09100
H287        H  0.57449538  0.99937385  0.27507145     0.09100
H288        H  0.59119785  0.98155615  0.23605010     0.05800
C289        C  0.93873232  0.02778081  0.25550690    -0.20000
C290        C  0.97324276  0.02723580  0.27958147    -0.06500
C291        C  0.02148740  0.02410925  0.27085895     0.14300
C292        C  0.03379869  0.02466119  0.23845694    -0.20000
C293        C  0.99932432  0.02745576  0.21442949    -0.06500
C294        C  0.95099034  0.02770481  0.22315317     0.14300
C295        C  0.91205865  0.03022021  0.19871320    -0.23400
H296        H  0.90170507  0.02951291  0.26206468     0.15600
H297        H  0.07083935  0.02394890  0.23182415     0.15600
C298        C  0.06039024  0.02211828  0.29534250    -0.23300
H299        H  0.87652559  0.03154517  0.20991209     0.05900
H300        H  0.91297694  0.00110965  0.18327267     0.09100
H301        H  0.91643277  0.05985132  0.18401922     0.09100
H302        H  0.05611849  0.99262567  0.31018828     0.09100
H303        H  0.05933094  0.05138996  0.31063096     0.09100
H304        H  0.09592640  0.02064846  0.28415972     0.05800
C305        C  0.72549542  0.94304130  0.37094745    -0.20000
C306        C  0.68735483  0.97193162  0.37319931    -0.06500
C307        C  0.69709301  0.01697998  0.37544603     0.14300
C308        C  0.74423242  0.03137726  0.37555190    -0.20000
C309        C  0.78236698  0.00247872  0.37334916    -0.06500
C310        C  0.77263098  0.95745844  0.37085685     0.14300
C311        C  0.81121186  0.92395791  0.36832285    -0.23400
H312        H  0.71843872  0.90860810  0.36912200     0.15600
H313        H  0.75128255  0.06581539  0.37737059     0.15600
C314        C  0.65852613  0.05046633  0.37810350    -0.23300
H315        H  0.79674646  0.89053389  0.36704079     0.05900
H316        H  0.83451762  0.92557130  0.38954837     0.09100
H317        H  0.83215338  0.92946196  0.34636455     0.09100
H318        H  0.63675420  0.04408065  0.39956641     0.09100
H319        H  0.63601745  0.04982405  0.35647234     0.09100
H320        H  0.67303103  0.08378779  0.38031960     0.05800
C321        C  0.95457243  0.94143910  0.72059549    -0.20000
C322        C  0.00259223  0.93331863  0.71455200    -0.06500
C323        C  0.03420028  0.92988260  0.74063894     0.14300
C324        C  0.01649260  0.93185778  0.77178466    -0.20000
C325        C  0.96796863  0.93629320  0.77782137    -0.06500
C326        C  0.93673400  0.94260874  0.75182841     0.14300
C327        C  0.88470640  0.95091069  0.75667195    -0.23400
H328        H  0.93043713  0.94505943  0.70073316     0.15600
H329        H  0.04062253  0.92778193  0.79160512     0.15600
C330        C  0.08675301  0.92431524  0.73608867    -0.23300
H331        H  0.86651575  0.95835570  0.73389554     0.05900
H332        H  0.87983405  0.97901691  0.77278407     0.09100
H333        H  0.86732119  0.92187856  0.76693981     0.09100
H334        H  0.10066277  0.95050691  0.72056382     0.09100
H335        H  0.09433210  0.89227502  0.72536675     0.09100
H336        H  0.10619154  0.92583346  0.75902660     0.05800
C337        C  0.01421419  0.97682582  0.46920893    -0.20000
C338        C  0.97029875  0.99782785  0.46733984    -0.06500
C339        C  0.94157398  0.99976383  0.49498048     0.14300
C340        C  0.95771988  0.98097709  0.52341813    -0.20000
C341        C  0.00183058  0.96038932  0.52536375    -0.06500
C342        C  0.03050929  0.95831866  0.49771408     0.14300
C343        C  0.07893665  0.93788798  0.49792964    -0.23400
H344        H  0.03642180  0.97539809  0.44825593     0.15600
H345        H  0.93556820  0.98245476  0.54439944     0.15600
C346        C  0.89354129  0.02093061  0.49496415    -0.23300
H347        H  0.09697367  0.94120161  0.47459651     0.05900
H348        H  0.07593936  0.90274911  0.50311644     0.09100
H349        H  0.10157620  0.95386324  0.51606202     0.09100
H350        H  0.87061853  0.00565456  0.47667515     0.09100
H351        H  0.89720881  0.05611405  0.49014649     0.09100
H352        H  0.87545204  0.01749450  0.51827205     0.05800
C353        C  0.44171007  0.03074450  0.73882070    -0.20000
C354        C  0.47635429  0.03062502  0.71486734    -0.06500
C355        C  0.52462813  0.02880187  0.72374966     0.14300
C356        C  0.53670651  0.02976848  0.75616418    -0.20000
C357        C  0.50204950  0.03214848  0.78005968    -0.06500
C358        C  0.45374547  0.03136060  0.77119311     0.14300
C359        C  0.41451642  0.03320585  0.79541641    -0.23400
H360        H  0.40466631  0.03157216  0.73214336     0.15600
H361        H  0.57374430  0.02979664  0.76288839     0.15600
C362        C  0.56376862  0.02782602  0.69944830    -0.23300
H363        H  0.37904982  0.03350599  0.78403549     0.05900
H364        H  0.41782679  0.06312875  0.80987229     0.09100
H365        H  0.41613346  0.00430641  0.81108814     0.09100
H366        H  0.56191578  0.05707163  0.68412334     0.09100
H367        H  0.56054941  0.99824011  0.68463104     0.09100
H368        H  0.59926223  0.02730887  0.71078784     0.05800
C369        C  0.49846527  0.96632758  0.52485300    -0.20000
C370        C  0.47457780  0.00615511  0.52596240    -0.06500
C371        C  0.46386429  0.02746319  0.49689387     0.14300
C372        C  0.47750022  0.00855494  0.46801019    -0.20000
C373        C  0.50107236  0.96864479  0.46684056    -0.06500
C374        C  0.51140067  0.94703500  0.49586802     0.14300
C375        C  0.53520845  0.90336841  0.49690941    -0.23400
H376        H  0.50644588  0.94964917  0.54689335     0.15600
H377        H  0.46946940  0.02531122  0.44600961     0.15600
C378        C  0.43832886  0.07028372  0.49562355    -0.23300
H379        H  0.53900542  0.89109328  0.52161650     0.05900
H380        H  0.57126738  0.90567797  0.48663734     0.09100
H381        H  0.51380380  0.87933533  0.48350718     0.09100
H382        H  0.45829919  0.09499189  0.50933969     0.09100
H383        H  0.40207380  0.06661667  0.50536999     0.09100
H384        H  0.43464803  0.08253324  0.47090075     0.05800
C385        C  0.23006898  0.94278095  0.60822567    -0.20000
C386        C  0.19145300  0.96872595  0.61694931    -0.06500
C387        C  0.20006073  0.01271643  0.62512733     0.14300
C388        C  0.24666103  0.02880348  0.62481268    -0.20000
C389        C  0.28524930  0.00251175  0.61666828    -0.06500
C390        C  0.27655961  0.95886599  0.60788772     0.14300
C391        C  0.31565525  0.92894408  0.59739259    -0.23400
H392        H  0.22392355  0.90934949  0.60151311     0.15600
H393        H  0.25304655  0.06226409  0.63139028     0.15600
C394        C  0.16085743  0.04314747  0.63454758    -0.23300
H395        H  0.30182989  0.89696117  0.58963775     0.05900
H396        H  0.34041859  0.92294556  0.61739241     0.09100
H397        H  0.33493019  0.94341606  0.57696932     0.09100
H398        H  0.14225784  0.03043111  0.65585029     0.09100
H399        H  0.13557656  0.04698293  0.61453778     0.09100
H400        H  0.17445064  0.07590552  0.64057156     0.05800
C401        C  0.45677784  0.27095868  0.61654545    -0.20000
C402        C  0.50555104  0.27958823  0.61444165    -0.06500
C403        C  0.53739500  0.24426178  0.61308219     0.14300
C404        C  0.51952901  0.20182824  0.61376154    -0.20000
C405        C  0.47072556  0.19316793  0.61568005    -0.06500
C406        C  0.43891352  0.22851908  0.61720675     0.14300
C407        C  0.38611236  0.22240118  0.61969478    -0.23400
H408        H  0.43212854  0.29770537  0.61770644     0.15600
H409        H  0.54420774  0.17510116  0.61271344     0.15600
C410        C  0.59026165  0.25038930  0.61103438    -0.23300
H411        H  0.36708451  0.25378921  0.62091523     0.05900
H412        H  0.37742020  0.20402300  0.64163410     0.09100
H413        H  0.37274794  0.20488083  0.59846677     0.09100
H414        H  0.60315661  0.26849973  0.63213311     0.09100
H415        H  0.59942995  0.26816806  0.58891781     0.09100
H416        H  0.60935461  0.21900472  0.61044387     0.05800
C417        C  0.95085787  0.71636460  0.59953858    -0.20000
C418        C  0.98014309  0.68531493  0.61390224    -0.06500
C419        C  0.02451263  0.69871114  0.62638834     0.14300
C420        C  0.03741713  0.74261804  0.62480486    -0.20000
C421        C  0.00759034  0.77377179  0.61111873    -0.06500
C422        C  0.96397263  0.76017440  0.59771947     0.14300
C423        C  0.93139225  0.79111599  0.58069570    -0.23400
H424        H  0.91731093  0.70625060  0.58943382     0.15600
H425        H  0.07088721  0.75284385  0.63497078     0.15600
C426        C  0.05826870  0.66753322  0.64210260    -0.23300
H427        H  0.90075193  0.77411289  0.56979446     0.05900
H428        H  0.95088344  0.80785705  0.56132708     0.09100
H429        H  0.91701535  0.81521148  0.59764977     0.09100
H430        H  0.07040413  0.64307244  0.62461575     0.09100
H431        H  0.04063868  0.65126137  0.66245930     0.09100
H432        H  0.09026459  0.68419346  0.65141183     0.05800
C433        C  0.77888393  0.45705310  0.62581965    -0.20000
C434        C  0.78544158  0.50160132  0.62010361    -0.06500
C435        C  0.74522813  0.52746926  0.61350414     0.14300
C436        C  0.70021436  0.50828206  0.61323173    -0.20000
C437        C  0.69374304  0.46373254  0.61854586    -0.06500
C438        C  0.73389123  0.43768699  0.62479723     0.14300
C439        C  0.73014603  0.38957017  0.63053601    -0.23400
H440        H  0.80932343  0.43690306  0.63077050     0.15600
H441        H  0.66974724  0.52838269  0.60823022     0.15600
C442        C  0.74883355  0.57516570  0.60611896    -0.23300
H443        H  0.76509853  0.37483195  0.63576460     0.05900
H444        H  0.71591256  0.37331159  0.60901683     0.09100
H445        H  0.70675882  0.38313710  0.65121048     0.09100
H446        H  0.77089703  0.58014766  0.58458859     0.09100
H447        H  0.76440522  0.59266266  0.62666665     0.09100
H448        H  0.71370138  0.58978041  0.60125800     0.05800
C449        C  0.43862408  0.72609083  0.37746286    -0.20000
C450        C  0.47349366  0.69374774  0.37724123    -0.06500
C451        C  0.52179256  0.70664442  0.37737199     0.14300
C452        C  0.53334818  0.75092048  0.37670204    -0.20000
C453        C  0.49849019  0.78324796  0.37632210    -0.06500
C454        C  0.45019909  0.77039822  0.37717438     0.14300
C455        C  0.41023510  0.80267604  0.37785124    -0.23400
H456        H  0.40166363  0.71667183  0.37773321     0.15600
H457        H  0.57031969  0.76031979  0.37647730     0.15600
C458        C  0.56182424  0.67444822  0.37838834    -0.23300
H459        H  0.37510139  0.78655958  0.37879187     0.05900
H460        H  0.41099321  0.82292906  0.35603626     0.09100
H461        H  0.41327644  0.82341458  0.39930853     0.09100
H462        H  0.56103013  0.65377414  0.35682200     0.09100
H463        H  0.55891257  0.65413578  0.40010223     0.09100
H464        H  0.59693830  0.69062698  0.37908149     0.05800
C465        C  0.50769699  0.47244303  0.46612902    -0.20000
C466        C  0.47400641  0.50578935  0.46587884    -0.06500
C467        C  0.45527006  0.52038681  0.49528840     0.14300
C468        C  0.47088510  0.50131356  0.52370029    -0.20000
C469        C  0.50438761  0.46781367  0.52392482    -0.06500
C470        C  0.52314840  0.45324309  0.49452186     0.14300
C471        C  0.55969564  0.41782340  0.49237831    -0.23400
H472        H  0.52218919  0.46106587  0.44381325     0.15600
H473        H  0.45641917  0.51266292  0.54603028     0.15600
C474        C  0.41869578  0.55577545  0.49743169    -0.23300
H475        H  0.57057675  0.41148331  0.46743759     0.05900
H476        H  0.54502941  0.38713164  0.50199951     0.09100
H477        H  0.59192295  0.42730342  0.50578858     0.09100
H478        H  0.38612091  0.54589303  0.48457050     0.09100
H479        H  0.43299865  0.58625377  0.48721278     0.09100
H480        H  0.40847399  0.56267102  0.52241918     0.05800
C481        C  0.03454718  0.24519204  0.38586903    -0.20000
C482        C  0.00154989  0.27841964  0.38079438    -0.06500
C483        C  0.95335802  0.26701116  0.37598859     0.14300
C484        C  0.94004358  0.22311742  0.37628089    -0.20000
C485        C  0.97322350  0.18988113  0.38082328    -0.06500
C486        C  0.02135495  0.20133383  0.38576108     0.14300
C487        C  0.05948007  0.16797140  0.39105572    -0.23400
H488        H  0.07137865  0.25351272  0.38968716     0.15600
H489        H  0.90324954  0.21469453  0.37240586     0.15600
C490        C  0.91545194  0.30039007  0.37010146    -0.23300
H491        H  0.09452486  0.18310849  0.39553447     0.05900
H492        H  0.06316564  0.14731591  0.36961794     0.09100
H493        H  0.05069798  0.14775879  0.41209296     0.09100
H494        H  0.92378454  0.31915777  0.34827263     0.09100
H495        H  0.91272109  0.32243685  0.39084757     0.09100
H496        H  0.88013350  0.28532200  0.36657423     0.05800
C497        C  0.03375597  0.45851793  0.49470384    -0.20000
C498        C  0.00425695  0.46468303  0.46816996    -0.06500
C499        C  0.96068868  0.48648308  0.47219234     0.14300
C500        C  0.94853153  0.50221789  0.50235614    -0.20000
C501        C  0.97810790  0.49623473  0.52886672    -0.06500
C502        C  0.02135223  0.47382821  0.52495578     0.14300
C503        C  0.05524384  0.46664273  0.55215549    -0.23400
H504        H  0.06715204  0.44177797  0.49173533     0.15600
H505        H  0.91512772  0.51895703  0.50530677     0.15600
C506        C  0.92598269  0.49215554  0.44526686    -0.23300
H507        H  0.08811668  0.45020530  0.54428982     0.05900
H508        H  0.03852561  0.44576770  0.57048451     0.09100
H509        H  0.06550405  0.49821793  0.56275203     0.09100
H510        H  0.91665633  0.46006710  0.43510953     0.09100
H511        H  0.94147932  0.51316396  0.42655175     0.09100
H512        H  0.89268637  0.50769148  0.45331721     0.05800
C513        C  0.20177240  0.50676390  0.38169804    -0.20000
C514        C  0.19707729  0.46165453  0.37855960    -0.06500
C515        C  0.23832695  0.43630399  0.37458450     0.14300
C516        C  0.28265653  0.45692781  0.37348186    -0.20000
C517        C  0.28723069  0.50221121  0.37619830    -0.06500
C518        C  0.24591613  0.52737609  0.38057827     0.14300
C519        C  0.24736186  0.57593019  0.38438915    -0.23400
H520        H  0.17045913  0.52637674  0.38503537     0.15600
H521        H  0.31402459  0.43735325  0.37024496     0.15600
C522        C  0.23635670  0.38774990  0.37094262    -0.23300
H523        H  0.21161387  0.58977853  0.38829102     0.05900
H524        H  0.26188193  0.59114002  0.36254621     0.09100
H525        H  0.26938333  0.58466074  0.40530137     0.07500
H526        H  0.21453177  0.37909093  0.34991892     0.09100
H527        H  0.22114913  0.37286345  0.39269805     0.09100
H528        H  0.27203740  0.37358053  0.36739968     0.05800
C529        C  0.53953662  0.22874628  0.87502609    -0.20000
C530        C  0.50538385  0.19655261  0.88074434    -0.06500
C531        C  0.45779343  0.20940875  0.88587511     0.14300
C532        C  0.44608743  0.25355287  0.88504253    -0.20000
C533        C  0.48007113  0.28571323  0.87894905    -0.06500
C534        C  0.52770213  0.27291937  0.87384737     0.14300
C535        C  0.56649281  0.30507364  0.86664134    -0.23400
H536        H  0.57591487  0.21926816  0.87092325     0.15600
H537        H  0.40965555  0.26295305  0.88901537     0.15600
C538        C  0.41868203  0.17728677  0.89233347    -0.23300
H539        H  0.60112844  0.28897424  0.86285764     0.05900
H540        H  0.57081644  0.32782200  0.88685881     0.09100
H541        H  0.55792256  0.32321866  0.84457502     0.09100
H542        H  0.42722280  0.15791105  0.91382864     0.09100
H543        H  0.41386023  0.15569850  0.87148930     0.09100
H544        H  0.38425355  0.19349416  0.89667464     0.05800
C545        C  0.51731632  0.45581994  0.76768765    -0.20000
C546        C  0.47014452  0.44570661  0.77501909    -0.06500
C547        C  0.43752725  0.43902821  0.74981880     0.14300
C548        C  0.45381081  0.43938961  0.71830645    -0.20000
C549        C  0.50179245  0.44550154  0.71125615    -0.06500
C550        C  0.53369952  0.45546552  0.73618852     0.14300
C551        C  0.58499094  0.46591885  0.72990337    -0.23400
H552        H  0.54215427  0.46194408  0.78681809     0.15600
H553        H  0.42924365  0.43255502  0.69914035     0.15600
C554        C  0.38553604  0.43139890  0.75566642    -0.23300
H555        H  0.60358011  0.47638530  0.75187638     0.05900
H556        H  0.58760448  0.49266196  0.71231392     0.09100
H557        H  0.60371173  0.43694561  0.72081677     0.09100
H558        H  0.37098217  0.45793149  0.77051218     0.09100
H559        H  0.38001310  0.39978214  0.76764592     0.09100
H560        H  0.36508282  0.43054829  0.73311119     0.05800
C561        C  0.01516914  0.76869189  0.88147067    -0.20000
C562        C  0.96614812  0.77630775  0.88211470    -0.06500
C563        C  0.93510572  0.74033925  0.88429568     0.14300
C564        C  0.95395790  0.69821929  0.88480669    -0.20000
C565        C  0.00300246  0.69059895  0.88309090    -0.06500
C566        C  0.03400616  0.72668567  0.88193329     0.14300
C567        C  0.08705120  0.72183557  0.88084378    -0.23400
H568        H  0.03928625  0.79590988  0.88016727     0.15600
H569        H  0.92991051  0.67094864  0.88610331     0.15600
C570        C  0.88212532  0.74552444  0.88590960    -0.23300
H571        H  0.10540501  0.75365803  0.88036750     0.05900
H572        H  0.09752938  0.70410080  0.85902069     0.09100
H573        H  0.09951534  0.70425408  0.90230466     0.09100
H574        H  0.86901371  0.76140528  0.86391922     0.09100
H575        H  0.87245357  0.76513301  0.90703671     0.09100
H576        H  0.86371273  0.71385580  0.88803206     0.05800
C577        C  0.94395644  0.52460456  0.73879065    -0.20000
C578        C  0.97836538  0.52490416  0.71475368    -0.06500
C579        C  0.02674561  0.52324766  0.72327386     0.14300
C580        C  0.03922663  0.52405630  0.75560911    -0.20000
C581        C  0.00476106  0.52583954  0.77966306    -0.06500
C582        C  0.95637493  0.52482541  0.77107004     0.14300
C583        C  0.91749408  0.52626323  0.79553876    -0.23400
H584        H  0.90685727  0.52539885  0.73223407     0.15600
H585        H  0.07632993  0.52444189  0.76216280     0.15600
C586        C  0.06544813  0.52278389  0.69863004    -0.23300
H587        H  0.88187510  0.52661922  0.78437310     0.05900
H588        H  0.92095375  0.55599345  0.81018760     0.09100
H589        H  0.91944324  0.49717718  0.81100189     0.09100
H590        H  0.06281955  0.55196757  0.68328307     0.09100
H591        H  0.06240344  0.49316037  0.68383408     0.09100
H592        H  0.10114396  0.52272125  0.70968187     0.05800
C593        C  0.23212987  0.53135873  0.87240297    -0.20000
C594        C  0.19425945  0.50307975  0.87851651    -0.06500
C595        C  0.20427822  0.45869284  0.88433458     0.14300
C596        C  0.25141475  0.44429555  0.88371168    -0.20000
C597        C  0.28922439  0.47252966  0.87717369    -0.06500
C598        C  0.27915196  0.51689746  0.87140378     0.14300
C599        C  0.31718472  0.54955689  0.86362181    -0.23400
H600        H  0.22491843  0.56527652  0.86790461     0.15600
H601        H  0.25868866  0.41038512  0.88819727     0.15600
C602        C  0.16599595  0.42586198  0.89110788    -0.23300
H603        H  0.30241697  0.58235129  0.85932526     0.05900
H604        H  0.33608261  0.53970801  0.84166134     0.09100
H605        H  0.34239887  0.55227628  0.88376637     0.09100
H606        H  0.14164734  0.42348311  0.87046015     0.09100
H607        H  0.14611331  0.43530898  0.91276252     0.09100
H608        H  0.18066703  0.39301133  0.89533771     0.05800
C609        C  0.45826048  0.69955657  0.11369476    -0.20000
C610        C  0.50729498  0.69203674  0.11206140    -0.06500
C611        C  0.53808593  0.72814314  0.10948496     0.14300
C612        C  0.51909694  0.77019136  0.10924529    -0.20000
C613        C  0.47011016  0.77773737  0.11138538    -0.06500
C614        C  0.43926378  0.74158732  0.11333418     0.14300
C615        C  0.38629240  0.74646320  0.11540042    -0.23400
H616        H  0.43431429  0.67226605  0.11549829     0.15600
H617        H  0.54302145  0.79750180  0.10749602     0.15600
C618        C  0.59100860  0.72321367  0.10697062    -0.23300
H619        H  0.36803680  0.71465467  0.11695842     0.05900
H620        H  0.37283161  0.76313374  0.09382405     0.09100
H621        H  0.37680520  0.76516972  0.13699513     0.09100
H622        H  0.59999064  0.70387946  0.08557215     0.09100
H623        H  0.60500187  0.70718544  0.12865372     0.09100
H624        H  0.60919486  0.75497412  0.10471114     0.05800
C625        C  0.54072929  0.53112036  0.23795925    -0.20000
C626        C  0.50684386  0.52755463  0.21357483    -0.06500
C627        C  0.45880209  0.52110144  0.22199743     0.14300
C628        C  0.44603189  0.52055769  0.25428338    -0.20000
C629        C  0.47957914  0.52685126  0.27851330    -0.06500
C630        C  0.52784182  0.53122786  0.27019256     0.14300
C631        C  0.56575450  0.53873473  0.29483740    -0.23400
H632        H  0.57762814  0.53562639  0.23175658     0.15600
H633        H  0.40907049  0.51690007  0.26063991     0.15600
C634        C  0.42025159  0.51703651  0.19739016    -0.23300
H635        H  0.60120388  0.54293450  0.28388263     0.05900
H636        H  0.56771737  0.51053557  0.31116090     0.09100
H637        H  0.55783521  0.56856067  0.30855883     0.09100
H638        H  0.42679246  0.48829705  0.18220226     0.09100
H639        H  0.41904716  0.54674666  0.18251892     0.09100
H640        H  0.38485345  0.51291126  0.20843517     0.05800
C641        C  0.52741954  0.52408739  0.99758599    -0.20000
C642        C  0.50975714  0.50373545  0.02514011    -0.06500
C643        C  0.47955464  0.46740462  0.02164392     0.14300
C644        C  0.46837868  0.45254827  0.99105658    -0.20000
C645        C  0.48555183  0.47311438  0.96351402    -0.06500
C646        C  0.51545821  0.50964579  0.96692052     0.14300
C647        C  0.53415385  0.53445290  0.93868590    -0.23400
H648        H  0.55036137  0.55201054  0.99995637     0.15600
H649        H  0.44546616  0.42460172  0.98874532     0.15600
C650        C  0.45847025  0.44380836  0.04969816    -0.23300
H651        H  0.55591286  0.56272495  0.94601187     0.05900
H652        H  0.50422274  0.54688128  0.92422958     0.09100
H653        H  0.55686594  0.51314834  0.92396491     0.09100
H654        H  0.43568311  0.46613792  0.06353565     0.09100
H655        H  0.48707207  0.43075306  0.06503004     0.09100
H656        H  0.43602095  0.41606659  0.04222504     0.05800
C657        C  0.03508869  0.22335706  0.12070503    -0.20000
C658        C  0.00109709  0.19161531  0.11352629    -0.06500
C659        C  0.95405498  0.20506966  0.10700108     0.14300
C660        C  0.94262270  0.24936846  0.10831355    -0.20000
C661        C  0.97660334  0.28109224  0.11568571    -0.06500
C662        C  0.02374020  0.26761473  0.12190287     0.14300
C663        C  0.06253653  0.29917126  0.13037136    -0.23400
H664        H  0.07107362  0.21344445  0.12581795     0.15600
H665        H  0.90660005  0.25930458  0.10334735     0.15600
C666        C  0.91555781  0.17342454  0.09813679    -0.23300
H667        H  0.09654821  0.28255057  0.13538055     0.05900
H668        H  0.05266224  0.31754522  0.15204544     0.09100
H669        H  0.06882563  0.32174794  0.11025793     0.09100
H670        H  0.90861961  0.15098608  0.11823296     0.09100
H671        H  0.92618556  0.15486024  0.07671064     0.09100
H672        H  0.88173385  0.19002959  0.09255220     0.05800
C673        C  0.02627147  0.44794056  0.22407753    -0.20000
C674        C  0.97760813  0.44629355  0.21749376    -0.06500
C675        C  0.94514385  0.44838575  0.24315448     0.14300
C676        C  0.96225856  0.44794141  0.27451662    -0.20000
C677        C  0.01079578  0.44500421  0.28100591    -0.06500
C678        C  0.04333319  0.44705332  0.25545440     0.14300
C679        C  0.09603082  0.44849838  0.26094970    -0.23400
H680        H  0.05127223  0.44766195  0.20455111     0.15600
H681        H  0.93734535  0.44753385  0.29410107     0.15600
C682        C  0.89245594  0.45114152  0.23792285    -0.23300
H683        H  0.11575498  0.45362172  0.23841964     0.05900
H684        H  0.10845333  0.41750157  0.27129388     0.09100
H685        H  0.10490580  0.47562749  0.27722530     0.09100
H686        H  0.87895336  0.42059654  0.22743262     0.09100
H687        H  0.88426296  0.47878861  0.22194696     0.09100
H688        H  0.87310707  0.45629338  0.26058267     0.05800
C689        C  0.02190010  0.52468551  0.99527099    -0.20000
C690        C  0.00458836  0.50405520  0.96775609    -0.06500
C691        C  0.97453351  0.46764696  0.97128418     0.14300
C692        C  0.96377867  0.45250693  0.00189767    -0.20000
C693        C  0.98113992  0.47296658  0.02943004    -0.06500
C694        C  0.01022563  0.51007735  0.02595065     0.14300
C695        C  0.02842726  0.53528885  0.05412194    -0.23400
H696        H  0.04443844  0.55287519  0.99285145     0.15600
H697        H  0.94122441  0.42432144  0.00424069     0.15600
C698        C  0.95338353  0.44416313  0.94321500    -0.23300
H699        H  0.04933580  0.56407340  0.04672805     0.05900
H700        H  0.05184029  0.51453508  0.06882082     0.09100
H701        H  0.99824424  0.54700283  0.06861477     0.09100
H702        H  0.98193507  0.43136559  0.92777430     0.09100
H703        H  0.93038184  0.46650600  0.92948498     0.09100
H704        H  0.93113314  0.41627919  0.95067703     0.05800
C705        C  0.73502100  0.53163420  0.11489621    -0.20000
C706        C  0.69641119  0.50336027  0.11836396    -0.06500
C707        C  0.70533430  0.45842073  0.12241627     0.14300
C708        C  0.75217868  0.44341717  0.12242692    -0.20000
C709        C  0.79075395  0.47170547  0.11895545    -0.06500
C710        C  0.78186399  0.51666760  0.11527237     0.14300
C711        C  0.82108585  0.54940864  0.11129194    -0.23400
H712        H  0.72859847  0.56598304  0.11183616     0.15600
H713        H  0.75870379  0.40908310  0.12550794     0.15600
C714        C  0.66624144  0.42570001  0.12712587    -0.23300
H715        H  0.80722531  0.58267580  0.10761551     0.05900
H716        H  0.84288319  0.54107842  0.09022818     0.09100
H717        H  0.84344793  0.55017490  0.13298699     0.09100
H718        H  0.64298909  0.42489332  0.10585611     0.09100
H719        H  0.64535630  0.43404292  0.14860553     0.09100
H720        H  0.68020506  0.39243578  0.13062083     0.05800
loop_ 
_geom_bond_atom_site_label_1 
_geom_bond_atom_site_label_2 
_geom_bond_distance 
_geom_bond_site_symmetry_2 
_ccdc_geom_bond_type 
O1            C4   1.270       .  A
O1           Cd6   2.476       .  S
C2           O11   1.263       .  A
C2            O7   1.269       .  A
C2          C661   1.496       .  S
O3            C9   1.268       .  A
O3           Cd6   2.492       .  S
C4           O12   1.264       .  A
C4          C709   1.490       .  S
C5           O10   1.269       .  A
C5            O8   1.263       .  A
C5          C674   1.486       .  S
Cd6          O13   2.433       .  S
Cd6          O12   2.438       .  S
Cd6          O11   2.454       .  S
Cd6           O7   2.498       .  S
Cd6          O10   2.489       .  S
Cd6           O8   2.438       .  S
C9           O13   1.264       .  A
C9          C693   1.491       .  S
O14          C17   1.270       .  A
O14         Cd19   2.468       .  S
C15          O24   1.265       .  A
C15          O20   1.267       .  A
C15         C610   1.494       .  S
O16          C22   1.268       .  A
O16         Cd19   2.463       .  S
C17          O25   1.264       .  A
C17         C706   1.490       .  S
C18          O23   1.268       .  A
C18          O21   1.265       .  A
C18         C626   1.490       .  S
Cd19         O26   2.445       .  S
Cd19         O25   2.425       .  S
Cd19         O24   2.451       .  S
Cd19         O20   2.477       .  S
Cd19         O23   2.481       .  S
Cd19         O21   2.441       .  S
C22          O26   1.265       .  A
C22         C642   1.490       .  S
O27          C30   1.267       .  A
O27         Cd32   2.469       .  S
C28          O37   1.264       .  A
C28          O33   1.270       .  A
C28         C594   1.493       .  S
O29          C35   1.269       .  A
O29         Cd32   2.456       .  S
C30          O38   1.265   1_455  A
C30         C565   1.494       .  S
C31          O36   1.267   1_455  A
C31          O34   1.264       .  A
C31         C581   1.484       .  S
Cd32         O39   2.433       .  S
Cd32         O38   2.466   1_455  S
Cd32         O37   2.445       .  S
Cd32         O33   2.471       .  S
Cd32         O36   2.483   1_455  S
Cd32         O34   2.446       .  S
C35          O39   1.266       .  A
C35         C690   1.489       .  S
O40          C43   1.269       .  A
O40         Cd45   2.480       .  S
C41          O50   1.263       .  A
C41          O46   1.269       .  A
C41         C533   1.492       .  S
O42          C48   1.270       .  A
O42         Cd45   2.486       .  S
C43          O51   1.264       .  A
C43         C597   1.494       .  S
C44          O49   1.269       .  A
C44          O47   1.264       .  A
C44         C645   1.489       .  S
Cd45         O52   2.421       .  S
Cd45         O51   2.436       .  S
Cd45         O50   2.448       .  S
Cd45         O46   2.472       .  S
Cd45         O49   2.488       .  S
Cd45         O47   2.414       .  S
C48          O52   1.263       .  A
C48         C546   1.484       .  S
O53          C56   1.268       .  A
O53         Cd58   2.473       .  S
C54          O63   1.263   1_455  A
C54          O59   1.269       .  A
C54         C482   1.493       .  S
O55          C61   1.267       .  A
O55         Cd58   2.460       .  S
C56          O64   1.265       .  A
C56         C514   1.487       .  S
C57          O62   1.269       .  A
C57          O60   1.264       .  A
C57         C677   1.483       .  S
Cd58         O65   2.440       .  S
Cd58         O64   2.418       .  S
Cd58         O63   2.446   1_455  S
Cd58         O59   2.473       .  S
Cd58         O62   2.484       .  S
Cd58         O60   2.435       .  S
C61          O65   1.265       .  A
C61         C498   1.483       .  S
O66          C69   1.268       .  A
O66         Cd71   2.451       .  S
C67          O76   1.262       .  A
C67          O72   1.269       .  A
C67         C450   1.496       .  S
O68          C74   1.269       .  A
O68         Cd71   2.458       .  S
C69          O77   1.266       .  A
C69         C517   1.490       .  S
C70          O75   1.267       .  A
C70          O73   1.265       .  A
C70         C629   1.485       .  S
Cd71         O78   2.439       .  S
Cd71         O77   2.446       .  S
Cd71         O76   2.451       .  S
Cd71         O72   2.494       .  S
Cd71         O75   2.475       .  S
Cd71         O73   2.446       .  S
C74          O78   1.263       .  A
C74         C466   1.489       .  S
O79          C82   1.269       .  A
O79         Cd84   2.480       .  S
C80          O89   1.266       .  A
C80          O85   1.267       .  A
C80         C434   1.492       .  S
O81          C87   1.266       .  A
O81         Cd84   2.461       .  S
C82          O90   1.263       .  A
C82         C418   1.490       .  S
C83          O88   1.268       .  A
C83          O86   1.266       .  A
C83         C578   1.480       .  S
Cd84         O91   2.439       .  S
Cd84         O90   2.448       .  S
Cd84         O89   2.456       .  S
Cd84         O85   2.458       .  S
Cd84         O88   2.468       .  S
Cd84         O86   2.418       .  S
C87          O91   1.264       .  A
C87         C501   1.483       .  S
O92          C95   1.266       .  A
O92         Cd97   2.459       .  S
C93         O102   1.266       .  A
C93          O98   1.267       .  A
C93         C437   1.488       .  S
O94         C100   1.268       .  A
O94         Cd97   2.465       .  S
C95         O103   1.265       .  A
C95         C402   1.489       .  S
C96         O101   1.269       .  A
C96          O99   1.262       .  A
C96         C549   1.480       .  S
Cd97        O104   2.438       .  S
Cd97        O103   2.442       .  S
Cd97        O102   2.436       .  S
Cd97         O98   2.456       .  S
Cd97        O101   2.482       .  S
Cd97         O99   2.421       .  S
C100        O104   1.262       .  A
C100        C469   1.488       .  S
O105        C108   1.267       .  A
O105       Cd110   2.473       .  S
C106        O115   1.264   1_545  A
C106        O111   1.269       .  A
C106        C389   1.491       .  S
O107        C113   1.269       .  A
O107       Cd110   2.492       .  S
C108        O116   1.265       .  A
C108        C405   1.491       .  S
C109        O114   1.268       .  A
C109        O112   1.264       .  A
C109        C354   1.486       .  S
Cd110       O117   2.434       .  S
Cd110       O116   2.447       .  S
Cd110       O115   2.436   1_545  S
Cd110       O111   2.485       .  S
Cd110       O114   2.488       .  S
Cd110       O112   2.429       .  S
C113        O117   1.263       .  A
C113        C370   1.492       .  S
O118        C121   1.270       .  A
O118       Cd123   2.481       .  S
C119        O128   1.264   1_455  A
C119        O124   1.269       .  A
C119        C421   1.487       .  S
O120        C126   1.270   1_655  A
O120       Cd123   2.502   1_655  S
C121        O129   1.264       .  A
C121        C386   1.496       .  S
C122        O127   1.270   1_455  A
C122        O125   1.264       .  A
C122        C341   1.489       .  S
Cd123       O130   2.435       .  S
Cd123       O129   2.458       .  S
Cd123       O128   2.443   1_455  S
Cd123       O124   2.479       .  S
Cd123       O127   2.478   1_455  S
Cd123       O125   2.438       .  S
C126        O130   1.263       .  A
C126        C322   1.488       .  S
O131        C134   1.270       .  A
O131       Cd136   2.470       .  S
C132        O141   1.262       .  A
C132        O137   1.269       .  A
C132        C485   1.493       .  S
O133        C139   1.269       .  A
O133       Cd136   2.486       .  S
C134        O142   1.264   1_545  A
C134        C309   1.491       .  S
C135        O140   1.268       .  A
C135        O138   1.265       .  A
C135        C290   1.488       .  S
Cd136       O143   2.447       .  S
Cd136       O142   2.435   1_545  S
Cd136       O141   2.440       .  S
Cd136       O137   2.495       .  S
Cd136       O140   2.485       .  S
Cd136       O138   2.438       .  S
C139        O143   1.263       .  A
C139        C338   1.490   1_545  S
O144        C147   1.270       .  A
O144       Cd149   2.479       .  S
C145        O154   1.264       .  A
C145        O150   1.270       .  A
C145        C306   1.492       .  S
O146        C152   1.269       .  A
O146       Cd149   2.490       .  S
C147        O155   1.263       .  A
C147        C453   1.495       .  S
C148        O153   1.270       .  A
C148        O151   1.263       .  A
C148        C373   1.491       .  S
Cd149       O156   2.421       .  S
Cd149       O155   2.448       .  S
Cd149       O154   2.442       .  S
Cd149       O150   2.474       .  S
Cd149       O153   2.468       .  S
Cd149       O151   2.440       .  S
C152        O156   1.263       .  A
C152        C274   1.479       .  S
O157        C160   1.268       .  A
O157       Cd162   2.473       .  S
C158        O167   1.265       .  A
C158        O163   1.267       .  A
C158        C562   1.492       .  S
O159        C165   1.268       .  A
O159       Cd162   2.486       .  S
C160        O168   1.266       .  A
C160        C258   1.487       .  S
C161        O166   1.268       .  A
C161        O164   1.265       .  A
C161        C242   1.492       .  S
Cd162       O169   2.459       .  S
Cd162       O168   2.416       .  S
Cd162       O167   2.437       .  S
Cd162       O163   2.475       .  S
Cd162       O166   2.481       .  S
Cd162       O164   2.452       .  S
C165        O169   1.263       .  A
C165        C325   1.487       .  S
O170        C173   1.268       .  A
O170       Cd175   2.491       .  S
C171        O180   1.266       .  A
C171        O176   1.268       .  A
C171        C261   1.485       .  S
O172        C178   1.267       .  A
O172       Cd175   2.466       .  S
C173        O181   1.263       .  A
C173        C530   1.493       .  S
C174        O179   1.267       .  A
C174        O177   1.265       .  A
C174        C357   1.486       .  S
Cd175       O182   2.452       .  S
Cd175       O181   2.443       .  S
Cd175       O180   2.434       .  S
Cd175       O176   2.452       .  S
Cd175       O179   2.477       .  S
Cd175       O177   2.449       .  S
C178        O182   1.265       .  A
C178        C229   1.487       .  S
O183        C186   1.269       .  A
O183       Cd188   2.484       .  S
C184        O193   1.264   1_545  A
C184        O189   1.269       .  A
C184        C210   1.488       .  S
O185        C191   1.268   1_655  A
O185       Cd188   2.486   1_655  S
C186        O194   1.263   1_455  A
C186        C658   1.495       .  S
C187        O192   1.267   1_455  A
C187        O190   1.265       .  A
C187        C245   1.493   1_445  S
Cd188       O195   2.457       .  S
Cd188       O194   2.463   1_455  S
Cd188       O193   2.441   1_545  S
Cd188       O189   2.473       .  S
Cd188       O192   2.473   1_455  S
Cd188       O190   2.454       .  S
C191        O195   1.265       .  A
C191        C293   1.487   1_455  S
O196        C199   1.268       .  A
O196       Cd201   2.479       .  S
C197        O206   1.264       .  A
C197        O202   1.270       .  A
C197        C213   1.491       .  S
O198        C204   1.270       .  A
O198       Cd201   2.473       .  S
C199        O207   1.266       .  A
C199        C613   1.495       .  S
C200        O205   1.268       .  A
C200        O203   1.266       .  A
C200        C226   1.489       .  S
Cd201       O208   2.439       .  S
Cd201       O207   2.458       .  S
Cd201       O206   2.438       .  S
Cd201       O202   2.468       .  S
Cd201       O205   2.477       .  S
Cd201       O203   2.441       .  S
C204        O208   1.263       .  A
C204        C277   1.486       .  S
C209        C210   1.403       .  A
C209        C214   1.405       .  A
C209        H216   1.084       .  S
C210        C211   1.418   1_545  A
C211        C212   1.404       .  A
C211        C218   1.509       .  S
C212        C213   1.405       .  A
C212        H217   1.084       .  S
C213        C214   1.422   1_565  A
C214        C215   1.509       .  S
C215        H219   1.111       .  S
C215        H220   1.110       .  S
C215        H221   1.110       .  S
C218        H222   1.111       .  S
C218        H223   1.109       .  S
C218        H224   1.111       .  S
C225        C226   1.407       .  A
C225        C230   1.404   1_554  A
C225        H232   1.085       .  S
C226        C227   1.417       .  A
C227        C228   1.406   1_564  A
C227        C234   1.508       .  S
C228        C229   1.406       .  A
C228        H233   1.085       .  S
C229        C230   1.415   1_545  A
C230        C231   1.508       .  S
C231        H235   1.111       .  S
C231        H236   1.109       .  S
C231        H237   1.111   1_565  S
C234        H238   1.110       .  S
C234        H239   1.110   1_565  S
C234        H240   1.111   1_565  S
C241        C242   1.407       .  A
C241        C246   1.406   1_556  A
C241        H248   1.083       .  S
C242        C243   1.416   1_655  A
C243        C244   1.406   1_565  A
C243        C250   1.508   1_565  S
C244        C245   1.408   1_446  A
C244        H249   1.083   1_556  S
C245        C246   1.417       .  A
C246        C247   1.508       .  S
C247        H251   1.111       .  S
C247        H252   1.110       .  S
C247        H253   1.110       .  S
C250        H254   1.110       .  S
C250        H255   1.110   1_545  S
C250        H256   1.111       .  S
C257        C258   1.407   1_545  A
C257        C262   1.401       .  A
C257        H264   1.083       .  S
C258        C259   1.417       .  A
C259        C260   1.405       .  A
C259        C266   1.508       .  S
C260        C261   1.407   1_565  A
C260        H265   1.083       .  S
C261        C262   1.415       .  A
C262        C263   1.508       .  S
C263        H267   1.111       .  S
C263        H268   1.110       .  S
C263        H269   1.110       .  S
C266        H270   1.111       .  S
C266        H271   1.110       .  S
C266        H272   1.111       .  S
C273        C274   1.402       .  A
C273        C278   1.405       .  A
C273        H280   1.084       .  S
C274        C275   1.415       .  A
C275        C276   1.402       .  A
C275        C282   1.508       .  S
C276        C277   1.404       .  A
C276        H281   1.084       .  S
C277        C278   1.420       .  A
C278        C279   1.509       .  S
C279        H283   1.111       .  S
C279        H284   1.109       .  S
C279        H285   1.111       .  S
C282        H286   1.109       .  S
C282        H287   1.110       .  S
C282        H288   1.111       .  S
C289        C290   1.406       .  A
C289        C294   1.404       .  A
C289        H296   1.084       .  S
C290        C291   1.416   1_655  A
C291        C292   1.407       .  A
C291        C298   1.507       .  S
C292        C293   1.406   1_455  A
C292        H297   1.084       .  S
C293        C294   1.415       .  A
C294        C295   1.507       .  S
C295        H299   1.111       .  S
C295        H300   1.110       .  S
C295        H301   1.110       .  S
C298        H302   1.110   1_545  S
C298        H303   1.110       .  S
C298        H304   1.111       .  S
C305        C306   1.404       .  A
C305        C310   1.404       .  A
C305        H312   1.084       .  S
C306        C307   1.421   1_565  A
C307        C308   1.404       .  A
C307        C314   1.509       .  S
C308        C309   1.404       .  A
C308        H313   1.084       .  S
C309        C310   1.421   1_545  A
C310        C311   1.509       .  S
C311        H315   1.111       .  S
C311        H316   1.110       .  S
C311        H317   1.110       .  S
C314        H318   1.110       .  S
C314        H319   1.110       .  S
C314        H320   1.111       .  S
C321        C322   1.405   1_655  A
C321        C326   1.408       .  A
C321        H328   1.084       .  S
C322        C323   1.418       .  A
C323        C324   1.404       .  A
C323        C330   1.509       .  S
C324        C325   1.403   1_455  A
C324        H329   1.084       .  S
C325        C326   1.418       .  A
C326        C327   1.508       .  S
C327        H331   1.111       .  S
C327        H332   1.111       .  S
C327        H333   1.109       .  S
C330        H334   1.111       .  S
C330        H335   1.109       .  S
C330        H336   1.111       .  S
C337        C338   1.404   1_455  A
C337        C342   1.405       .  A
C337        H344   1.083       .  S
C338        C339   1.420       .  A
C339        C340   1.405       .  A
C339        C346   1.508   1_565  S
C340        C341   1.403   1_655  A
C340        H345   1.084       .  S
C341        C342   1.420       .  A
C342        C343   1.509       .  S
C343        H347   1.111       .  S
C343        H348   1.110       .  S
C343        H349   1.111       .  S
C346        H350   1.110       .  S
C346        H351   1.110       .  S
C346        H352   1.111       .  S
C353        C354   1.406       .  A
C353        C358   1.403       .  A
C353        H360   1.085       .  S
C354        C355   1.416       .  A
C355        C356   1.405       .  A
C355        C362   1.507       .  S
C356        C357   1.406       .  A
C356        H361   1.085       .  S
C357        C358   1.416       .  A
C358        C359   1.508       .  S
C359        H363   1.111       .  S
C359        H364   1.110       .  S
C359        H365   1.110       .  S
C362        H366   1.110       .  S
C362        H367   1.110   1_545  S
C362        H368   1.111       .  S
C369        C370   1.405   1_565  A
C369        C374   1.406       .  A
C369        H376   1.084       .  S
C370        C371   1.420       .  A
C371        C372   1.403       .  A
C371        C378   1.509       .  S
C372        C373   1.403   1_545  A
C372        H377   1.084       .  S
C373        C374   1.421       .  A
C374        C375   1.509       .  S
C375        H379   1.111       .  S
C375        H380   1.110       .  S
C375        H381   1.111       .  S
C378        H382   1.110       .  S
C378        H383   1.110       .  S
C378        H384   1.111       .  S
C385        C386   1.405       .  A
C385        C390   1.404       .  A
C385        H392   1.084       .  S
C386        C387   1.422   1_565  A
C387        C388   1.407       .  A
C387        C394   1.508       .  S
C388        C389   1.404       .  A
C388        H393   1.085       .  S
C389        C390   1.419   1_545  A
C390        C391   1.509       .  S
C391        H395   1.111       .  S
C391        H396   1.110       .  S
C391        H397   1.111       .  S
C394        H398   1.110       .  S
C394        H399   1.110       .  S
C394        H400   1.111       .  S
C401        C402   1.407       .  A
C401        C406   1.404       .  A
C401        H408   1.083       .  S
C402        C403   1.417       .  A
C403        C404   1.404       .  A
C403        C410   1.509       .  S
C404        C405   1.407       .  A
C404        H409   1.083       .  S
C405        C406   1.417       .  A
C406        C407   1.508       .  S
C407        H411   1.111       .  S
C407        H412   1.110       .  S
C407        H413   1.110       .  S
C410        H414   1.110       .  S
C410        H415   1.110       .  S
C410        H416   1.111       .  S
C417        C418   1.404       .  A
C417        C422   1.404       .  A
C417        H424   1.085       .  S
C418        C419   1.421   1_655  A
C419        C420   1.405       .  A
C419        C426   1.509       .  S
C420        C421   1.403       .  A
C420        H425   1.085       .  S
C421        C422   1.419   1_455  A
C422        C423   1.508       .  S
C423        H427   1.111       .  S
C423        H428   1.111       .  S
C423        H429   1.109       .  S
C426        H430   1.110       .  S
C426        H431   1.110       .  S
C426        H432   1.111       .  S
C433        C434   1.408       .  A
C433        C438   1.405       .  A
C433        H440   1.083       .  S
C434        C435   1.418       .  A
C435        C436   1.403       .  A
C435        C442   1.508       .  S
C436        C437   1.405       .  A
C436        H441   1.083       .  S
C437        C438   1.417       .  A
C438        C439   1.509       .  S
C439        H443   1.111       .  S
C439        H444   1.110       .  S
C439        H445   1.110       .  S
C442        H446   1.110       .  S
C442        H447   1.110       .  S
C442        H448   1.111       .  S
C449        C450   1.405       .  A
C449        C454   1.406       .  A
C449        H456   1.084       .  S
C450        C451   1.422       .  A
C451        C452   1.405       .  A
C451        C458   1.509       .  S
C452        C453   1.404       .  A
C452        H457   1.084       .  S
C453        C454   1.422       .  A
C454        C455   1.509       .  S
C455        H459   1.111       .  S
C455        H460   1.110       .  S
C455        H461   1.110       .  S
C458        H462   1.110       .  S
C458        H463   1.110       .  S
C458        H464   1.111       .  S
C465        C466   1.404       .  A
C465        C470   1.402       .  A
C465        H472   1.083       .  S
C466        C467   1.420       .  A
C467        C468   1.403       .  A
C467        C474   1.509       .  S
C468        C469   1.404       .  A
C468        H473   1.083       .  S
C469        C470   1.420       .  A
C470        C471   1.509       .  S
C471        H475   1.111       .  S
C471        H476   1.110       .  S
C471        H477   1.110       .  S
C474        H478   1.110       .  S
C474        H479   1.110       .  S
C474        H480   1.111       .  S
C481        C482   1.404       .  A
C481        C486   1.404       .  A
C481        H488   1.084       .  S
C482        C483   1.421   1_455  A
C483        C484   1.406       .  A
C483        C490   1.509       .  S
C484        C485   1.405       .  A
C484        H489   1.084       .  S
C485        C486   1.421   1_655  A
C486        C487   1.509       .  S
C487        H491   1.111       .  S
C487        H492   1.110       .  S
C487        H493   1.110       .  S
C490        H494   1.110       .  S
C490        H495   1.110       .  S
C490        H496   1.111       .  S
C497        C498   1.406       .  A
C497        C502   1.403       .  A
C497        H504   1.085       .  S
C498        C499   1.415   1_455  A
C499        C500   1.402       .  A
C499        C506   1.508       .  S
C500        C501   1.405       .  A
C500        H505   1.085       .  S
C501        C502   1.416   1_655  A
C502        C503   1.508       .  S
C503        H507   1.111       .  S
C503        H508   1.110       .  S
C503        H509   1.110       .  S
C506        H510   1.111       .  S
C506        H511   1.109       .  S
C506        H512   1.111       .  S
C513        C514   1.405       .  A
C513        C518   1.401       .  A
C513        H520   1.083       .  S
C514        C515   1.416       .  A
C515        C516   1.406       .  A
C515        C522   1.508       .  S
C516        C517   1.409       .  A
C516        H521   1.083       .  S
C517        C518   1.417       .  A
C518        C519   1.509       .  S
C519        H523   1.111       .  S
C519        H524   1.110       .  S
C519        H525   1.110       .  S
C522        H526   1.110       .  S
C522        H527   1.110       .  S
C522        H528   1.111       .  S
C529        C530   1.405       .  A
C529        C534   1.406       .  A
C529        H536   1.084       .  S
C530        C531   1.420       .  A
C531        C532   1.404       .  A
C531        C538   1.509       .  S
C532        C533   1.404       .  A
C532        H537   1.084       .  S
C533        C534   1.421       .  A
C534        C535   1.509       .  S
C535        H539   1.111       .  S
C535        H540   1.110       .  S
C535        H541   1.110       .  S
C538        H542   1.110       .  S
C538        H543   1.110       .  S
C538        H544   1.111       .  S
C545        C546   1.404       .  A
C545        C550   1.404       .  A
C545        H552   1.084       .  S
C546        C547   1.419       .  A
C547        C548   1.403       .  A
C547        C554   1.509       .  S
C548        C549   1.401       .  A
C548        H553   1.084       .  S
C549        C550   1.416       .  A
C550        C551   1.509       .  S
C551        H555   1.111       .  S
C551        H556   1.111       .  S
C551        H557   1.109       .  S
C554        H558   1.111       .  S
C554        H559   1.109       .  S
C554        H560   1.111       .  S
C561        C562   1.407   1_455  A
C561        C566   1.403       .  A
C561        H568   1.083       .  S
C562        C563   1.417       .  A
C563        C564   1.407       .  A
C563        C570   1.508       .  S
C564        C565   1.409   1_655  A
C564        H569   1.083       .  S
C565        C566   1.417       .  A
C566        C567   1.508       .  S
C567        H571   1.111       .  S
C567        H572   1.110       .  S
C567        H573   1.110       .  S
C570        H574   1.110       .  S
C570        H575   1.110       .  S
C570        H576   1.111       .  S
C577        C578   1.404       .  A
C577        C582   1.402       .  A
C577        H584   1.085       .  S
C578        C579   1.415   1_655  A
C579        C580   1.405       .  A
C579        C586   1.508       .  S
C580        C581   1.406       .  A
C580        H585   1.085       .  S
C581        C582   1.415   1_455  A
C582        C583   1.507       .  S
C583        H587   1.111       .  S
C583        H588   1.110       .  S
C583        H589   1.110       .  S
C586        H590   1.111       .  S
C586        H591   1.110       .  S
C586        H592   1.111       .  S
C593        C594   1.404       .  A
C593        C598   1.404       .  A
C593        H600   1.084       .  S
C594        C595   1.421       .  A
C595        C596   1.406       .  A
C595        C602   1.509       .  S
C596        C597   1.405       .  A
C596        H601   1.084       .  S
C597        C598   1.421       .  A
C598        C599   1.509       .  S
C599        H603   1.111       .  S
C599        H604   1.110       .  S
C599        H605   1.110       .  S
C602        H606   1.110       .  S
C602        H607   1.110       .  S
C602        H608   1.111       .  S
C609        C610   1.408       .  A
C609        C614   1.406       .  A
C609        H616   1.083       .  S
C610        C611   1.417       .  A
C611        C612   1.406       .  A
C611        C618   1.508       .  S
C612        C613   1.408       .  A
C612        H617   1.083       .  S
C613        C614   1.418       .  A
C614        C615   1.508       .  S
C615        H619   1.111       .  S
C615        H620   1.110       .  S
C615        H621   1.110       .  S
C618        H622   1.110       .  S
C618        H623   1.110       .  S
C618        H624   1.111       .  S
C625        C626   1.407       .  A
C625        C630   1.404       .  A
C625        H632   1.084       .  S
C626        C627   1.418       .  A
C627        C628   1.405       .  A
C627        C634   1.508       .  S
C628        C629   1.405       .  A
C628        H633   1.085       .  S
C629        C630   1.415       .  A
C630        C631   1.508       .  S
C631        H635   1.111       .  S
C631        H636   1.110       .  S
C631        H637   1.111       .  S
C634        H638   1.110       .  S
C634        H639   1.110       .  S
C634        H640   1.111       .  S
C641        C642   1.409   1_556  A
C641        C646   1.406       .  A
C641        H648   1.083       .  S
C642        C643   1.416       .  A
C643        C644   1.402   1_554  A
C643        C650   1.509       .  S
C644        C645   1.407       .  A
C644        H649   1.083       .  S
C645        C646   1.416       .  A
C646        C647   1.508       .  S
C647        H651   1.111       .  S
C647        H652   1.110       .  S
C647        H653   1.110       .  S
C650        H654   1.110       .  S
C650        H655   1.110       .  S
C650        H656   1.111       .  S
C657        C658   1.404       .  A
C657        C662   1.406       .  A
C657        H664   1.084       .  S
C658        C659   1.421   1_455  A
C659        C660   1.407       .  A
C659        C666   1.508       .  S
C660        C661   1.406       .  A
C660        H665   1.084       .  S
C661        C662   1.421   1_655  A
C662        C663   1.509       .  S
C663        H667   1.111       .  S
C663        H668   1.110       .  S
C663        H669   1.110       .  S
C666        H670   1.110       .  S
C666        H671   1.110       .  S
C666        H672   1.111       .  S
C673        C674   1.404   1_455  A
C673        C678   1.405       .  A
C673        H680   1.084       .  S
C674        C675   1.419       .  A
C675        C676   1.405       .  A
C675        C682   1.508       .  S
C676        C677   1.402   1_655  A
C676        H681   1.084       .  S
C677        C678   1.416       .  A
C678        C679   1.508       .  S
C679        H683   1.111       .  S
C679        H684   1.109       .  S
C679        H685   1.111       .  S
C682        H686   1.109       .  S
C682        H687   1.111       .  S
C682        H688   1.111       .  S
C689        C690   1.408       .  A
C689        C694   1.406   1_556  A
C689        H696   1.083       .  S
C690        C691   1.416   1_455  A
C691        C692   1.403   1_556  A
C691        C698   1.509       .  S
C692        C693   1.407       .  A
C692        H697   1.082       .  S
C693        C694   1.417   1_655  A
C694        C695   1.508       .  S
C695        H699   1.111       .  S
C695        H700   1.110       .  S
C695        H701   1.111   1_455  S
C698        H702   1.110       .  S
C698        H703   1.110       .  S
C698        H704   1.111       .  S
C705        C706   1.404       .  A
C705        C710   1.404       .  A
C705        H712   1.084       .  S
C706        C707   1.421       .  A
C707        C708   1.404       .  A
C707        C714   1.509       .  S
C708        C709   1.404       .  A
C708        H713   1.084       .  S
C709        C710   1.420       .  A
C710        C711   1.509       .  S
C711        H715   1.111       .  S
C711        H716   1.110       .  S
C711        H717   1.110       .  S
C714        H718   1.110       .  S
C714        H719   1.110       .  S
C714        H720   1.111       .  S
