geometry optimzed in LAMMPS
_audit_creation_date              2020-12-01 
_audit_creation_method            'lammps2cif' 
_symmetry_space_group_name_H-M    'P1' 
_symmetry_Int_Tables_number       1 
_symmetry_cell_setting            triclinic 
loop_ 
_symmetry_equiv_pos_as_xyz 
  x,y,z 
_cell_length_a                    57.19376924 
_cell_length_b                    56.985632131546446 
_cell_length_c                    54.022189459419565 
_cell_angle_alpha                 90.18362566293179 
_cell_angle_beta                  89.68667239857962 
_cell_angle_gamma                 119.36052685022084 
loop_ 
_atom_site_label 
_atom_site_type_symbol 
_atom_site_fract_x 
_atom_site_fract_y 
_atom_site_fract_z 
_atom_site_charge 
O1          O  0.75859968  0.89982774  0.43718416    -0.72200
O2          O  0.73058428  0.94756954  0.42609051    -0.72400
O3          O  0.76575140  0.94545212  0.45793302    -0.72200
O4          O  0.72409326  0.90175226  0.40487929    -0.72200
O5          O  0.69124375  0.87788969  0.43009100    -0.72200
O6          O  0.73281867  0.92309711  0.48358047    -0.72200
O7          O  0.69763625  0.92340424  0.45108858    -0.72200
O8          O  0.72574300  0.87697479  0.46277887    -0.72400
V9          V  0.74408099  0.92323966  0.43198363     1.35200
V10         V  0.71252163  0.90082985  0.45640932     1.35200
C11         C  0.74671523  0.88021261  0.45196094     0.77100
C12         C  0.70906356  0.94336621  0.43677085     0.77100
C13         C  0.75662264  0.94181264  0.47973877     0.77000
C14         C  0.70089227  0.88201961  0.40834202     0.77000
O15         O  0.57291411  0.10332621  0.41864174    -0.72200
O16         O  0.61801866  0.07176737  0.42834132    -0.72400
O17         O  0.61878885  0.10979619  0.39845865    -0.72200
O18         O  0.57232412  0.06570264  0.44921132    -0.72200
O19         O  0.54842378  0.03524043  0.42203800    -0.72200
O20         O  0.59663298  0.07872265  0.37118499    -0.72200
O21         O  0.59371509  0.04060788  0.40188267    -0.72200
O22         O  0.55053231  0.07247972  0.39119898    -0.72400
V23         V  0.59508490  0.08707213  0.42316802     1.35200
V24         V  0.57283545  0.05742681  0.39708915     1.35200
C25         C  0.55378422  0.09280993  0.40327911     0.77100
C26         C  0.61319038  0.05049594  0.41668600     0.77100
C27         C  0.61607297  0.10176175  0.37631774     0.77000
C28         C  0.55213564  0.04322218  0.44431039     0.77000
O29         O  0.06555746  0.20243708  0.93378569    -0.72200
O30         O  0.01711344  0.22957844  0.92145817    -0.72400
O31         O  0.06442221  0.23827579  0.90198462    -0.72200
O32         O  0.01828955  0.19327409  0.95270994    -0.72200
O33         O  0.03836240  0.22541461  0.97956713    -0.72200
O34         O  0.08636018  0.26971312  0.92899716    -0.72200
O35         O  0.03918337  0.26168060  0.94783973    -0.72200
O36         O  0.08570890  0.23399129  0.96113617    -0.72400
V37         V  0.04171794  0.21650835  0.92795615     1.35200
V38         V  0.06197163  0.24706969  0.95381600     1.35200
C39         C  0.08395878  0.21382720  0.94975327     0.77100
C40         C  0.01989531  0.25028573  0.93291300     0.77100
C41         C  0.08375591  0.26135529  0.90687796     0.77000
C42         C  0.02018977  0.20165880  0.97467990     0.77000
O43         O  0.87305336  0.39942043  0.91266312    -0.72200
O44         O  0.89854619  0.34948357  0.92427191    -0.72400
O45         O  0.90857750  0.39723961  0.94378097    -0.72200
O46         O  0.86265417  0.35160939  0.89363477    -0.72200
O47         O  0.89423015  0.37170938  0.86624075    -0.72200
O48         O  0.94006392  0.41839864  0.91654604    -0.72200
O49         O  0.92993275  0.37054115  0.89691932    -0.72200
O50         O  0.90469209  0.41955627  0.88535506    -0.72400
V51         V  0.88632249  0.37482370  0.91809844     1.35200
V52         V  0.91661972  0.39465202  0.89185165     1.35200
C53         C  0.88480724  0.41813380  0.89692535     0.77100
C54         C  0.91838007  0.35132306  0.91203306     0.77100
C55         C  0.93188550  0.41601444  0.93872183     0.77000
C56         C  0.87063320  0.35352514  0.87150518     0.77000
O57         O  0.20488546  0.06624981  0.57621894    -0.72200
O58         O  0.23106098  0.01705975  0.58775388    -0.72400
O59         O  0.24140159  0.06519339  0.60659403    -0.72200
O60         O  0.19426110  0.01804006  0.55751551    -0.72200
O61         O  0.22534154  0.03757145  0.52961220    -0.72200
O62         O  0.27200390  0.08627393  0.57862451    -0.72200
O63         O  0.26215623  0.03795796  0.56014631    -0.72200
O64         O  0.23552430  0.08597357  0.54795033    -0.72400
V65         V  0.21849494  0.04200836  0.58147900     1.35200
V66         V  0.24812804  0.06151538  0.55461761     1.35200
C67         C  0.21623032  0.08487268  0.56037470     0.77100
C68         C  0.25102755  0.01905279  0.57568510     0.77100
C69         C  0.26442985  0.08425108  0.60098455     0.77000
C70         C  0.20188355  0.01931298  0.53529954     0.77000
O71         O  0.40181450  0.87537061  0.60354467    -0.72200
O72         O  0.35163226  0.89989246  0.59008253    -0.72400
O73         O  0.40023099  0.91103516  0.57238746    -0.72200
O74         O  0.35315135  0.86368611  0.62081110    -0.72200
O75         O  0.37260768  0.89422334  0.64915719    -0.72200
O76         O  0.41862287  0.94300719  0.59962063    -0.72200
O77         O  0.36996047  0.92992120  0.61901559    -0.72200
O78         O  0.42144508  0.90769383  0.63027934    -0.72400
V79         V  0.37706568  0.88813071  0.59722484     1.35200
V80         V  0.39529493  0.91812271  0.62397091     1.35200
C81         C  0.42049770  0.88776932  0.61904888     0.77100
C82         C  0.35192694  0.91877376  0.60283700     0.77100
C83         C  0.41773309  0.93485874  0.57760130     0.77000
C84         C  0.35465476  0.87069808  0.64317862     0.77000
O85         O  0.43217300  0.23498059  0.76338022    -0.72200
O86         O  0.40410146  0.28285179  0.75269653    -0.72400
O87         O  0.44022748  0.28134025  0.78345172    -0.72200
O88         O  0.39650564  0.23626834  0.73185727    -0.72200
O89         O  0.36375028  0.21481645  0.75783102    -0.72200
O90         O  0.40913983  0.25824482  0.81047762    -0.72200
O91         O  0.37352947  0.26107325  0.78051094    -0.72200
O92         O  0.39882871  0.21163910  0.78834185    -0.72400
V93         V  0.41758585  0.25844146  0.75829620     1.35200
V94         V  0.38692190  0.23686611  0.78375219     1.35200
C95         C  0.41991003  0.21496021  0.77767710     0.77100
C96         C  0.38436572  0.28045601  0.76549632     0.77100
C97         C  0.43245070  0.27747475  0.80572600     0.77000
C98         C  0.37279065  0.21770367  0.73588534     0.77000
O99         O  0.23830831  0.43047673  0.74867514    -0.72200
O100        O  0.28662040  0.40334192  0.76143446    -0.72400
O101        O  0.28627918  0.44024010  0.73060669    -0.72200
O102        O  0.23875026  0.39422736  0.77990957    -0.72200
O103        O  0.21940972  0.36212137  0.75292740    -0.72200
O104        O  0.26520422  0.40975568  0.70257653    -0.72200
O105        O  0.26708263  0.37358774  0.73248209    -0.72200
O106        O  0.21714806  0.39776272  0.72258061    -0.72400
V107        V  0.26214394  0.41647070  0.75465745     1.35200
V108        V  0.24261806  0.38643603  0.72818753     1.35200
C109        C  0.21895450  0.41802134  0.73382379     0.77100
C110        C  0.28538565  0.38416339  0.74844278     0.77100
C111        C  0.28400771  0.43299695  0.70822105     0.77000
C112        C  0.22070801  0.37052500  0.77490865     0.77000
O113        O  0.73396266  0.53578511  0.27005866    -0.72200
O114        O  0.68595421  0.56352245  0.25901061    -0.72400
O115        O  0.73264457  0.57214837  0.23914893    -0.72200
O116        O  0.68718403  0.52661213  0.28971874    -0.72200
O117        O  0.70860300  0.55782394  0.31710062    -0.72200
O118        O  0.75413878  0.60382426  0.26610279    -0.72200
O119        O  0.70729531  0.59434898  0.28669268    -0.72200
O120        O  0.75560903  0.56786414  0.29662871    -0.72400
V121        V  0.71029542  0.55012056  0.26501116     1.35200
V122        V  0.73094292  0.58033397  0.29110254     1.35200
C123        C  0.75316689  0.54743007  0.28518620     0.77100
C124        C  0.68864024  0.58387757  0.27099592     0.77100
C125        C  0.75134771  0.59557714  0.24395189     0.77000
C126        C  0.69023581  0.53422427  0.31201990     0.77000
O127        O  0.54378334  0.73447881  0.24196435    -0.72200
O128        O  0.57191810  0.68682067  0.25341063    -0.72400
O129        O  0.58009111  0.73368962  0.27294529    -0.72200
O130        O  0.53493579  0.68742424  0.22306885    -0.72200
O131        O  0.56585868  0.70837372  0.19530687    -0.72200
O132        O  0.61153233  0.75571496  0.24590269    -0.72200
O133        O  0.60281445  0.70842223  0.22579454    -0.72200
O134        O  0.57538377  0.75582153  0.21484785    -0.72400
V135        V  0.55833072  0.71100691  0.24732288     1.35200
V136        V  0.58831623  0.73165232  0.22100120     1.35200
C137        C  0.55505553  0.75338234  0.22634896     0.77100
C138        C  0.59214918  0.68947449  0.24129737     0.77100
C139        C  0.60319874  0.75287353  0.26810393     0.77000
C140        C  0.54239740  0.68985768  0.20076492     0.77000
O141        O  0.09845490  0.56761096  0.10054124    -0.72200
O142        O  0.06938313  0.61443472  0.08966825    -0.72400
O143        O  0.10568137  0.61372281  0.12043258    -0.72200
O144        O  0.06233797  0.56797199  0.06915531    -0.72200
O145        O  0.02992205  0.54609590  0.09536937    -0.72200
O146        O  0.07451782  0.59064877  0.14745954    -0.72200
O147        O  0.03871640  0.59234539  0.11733343    -0.72200
O148        O  0.06554691  0.54407376  0.12587752    -0.72400
V149        V  0.08329560  0.59048370  0.09539892     1.35200
V150        V  0.05278796  0.56868884  0.12096709     1.35200
C151        C  0.08666809  0.54770802  0.11501220     0.77100
C152        C  0.04958715  0.61186494  0.10243849     0.77100
C153        C  0.09753737  0.61019299  0.14258113     0.77000
C154        C  0.03887296  0.54904152  0.07343442     0.77000
O155        O  0.90128583  0.75838631  0.07871356    -0.72200
O156        O  0.94972143  0.73239810  0.09506385    -0.72400
O157        O  0.94936810  0.76726498  0.06197993    -0.72200
O158        O  0.90177758  0.72408580  0.11230564    -0.72200
O159        O  0.88225272  0.69060237  0.08670042    -0.72200
O160        O  0.92897586  0.73511073  0.03520354    -0.72200
O161        O  0.93009598  0.70072823  0.06771340    -0.72200
O162        O  0.88061225  0.72459916  0.05361095    -0.72400
V163        V  0.92514172  0.74488049  0.08654006     1.35200
V164        V  0.90583736  0.71339374  0.06133651     1.35200
C165        C  0.88234639  0.74547019  0.06356024     0.77100
C166        C  0.94856740  0.71252361  0.08334768     0.77100
C167        C  0.94766867  0.75864516  0.04014635     0.77000
C168        C  0.88372876  0.70017288  0.10821832     0.77000
O169        O  0.46030442  0.87511025  0.10092141    -0.72200
O170        O  0.53516629  0.90116178  0.09016602    -0.72400
O171        O  0.49762703  0.86586141  0.12111412    -0.72200
O172        O  0.49744354  0.90998311  0.06930319    -0.72200
O173        O  0.50673287  0.94253364  0.09524553    -0.72200
O174        O  0.50782642  0.89819218  0.14760089    -0.72200
O175        O  0.54417206  0.93344573  0.11636627    -0.72200
O176        O  0.47041238  0.90773074  0.12704044    -0.72400
V177        V  0.49785473  0.88870166  0.09583671     1.35200
V178        V  0.50707659  0.91985332  0.12102704     1.35200
C179        C  0.45274809  0.88717258  0.11598406     0.77100
C180        C  0.55239620  0.92152512  0.10201668     0.77100
C181        C  0.50308220  0.87443170  0.14304340     0.77000
C182        C  0.50149736  0.93351504  0.07331327     0.77000
O183        O  0.84312015  0.06348812  0.07522176    -0.72200
O184        O  0.76921977  0.01762539  0.09114561    -0.72400
O185        O  0.80381685  0.01678543  0.05769858    -0.72200
O186        O  0.80907904  0.06437781  0.10898161    -0.72200
O187        O  0.79623676  0.08548083  0.08386276    -0.72200
O188        O  0.79383862  0.03918483  0.03132843    -0.72200
O189        O  0.75851781  0.03878324  0.06403924    -0.72200
O190        O  0.83173844  0.08635652  0.05078548    -0.72400
V191        V  0.80604300  0.04097683  0.08278530     1.35200
V192        V  0.79532557  0.06206501  0.05800907     1.35200
C193        C  0.84994940  0.08304013  0.06048994     0.77100
C194        C  0.75125922  0.02005435  0.07966484     0.77100
C195        C  0.79806636  0.01976288  0.03582367     0.77000
C196        C  0.80375232  0.08311648  0.10529716     0.77000
O197        O  0.79358280  0.23554151  0.27206639    -0.72200
O198        O  0.86832225  0.27997409  0.25848016    -0.72400
O199        O  0.82850699  0.23409061  0.23944695    -0.72200
O200        O  0.83293466  0.28132338  0.29064278    -0.72200
O201        O  0.84214903  0.25853268  0.31724646    -0.72200
O202        O  0.83804370  0.21104876  0.26542872    -0.72200
O203        O  0.87727160  0.25713382  0.28520896    -0.72200
O204        O  0.80318895  0.21224190  0.29773578    -0.72400
V205        V  0.83106873  0.25729409  0.26564346     1.35200
V206        V  0.84000126  0.23519020  0.29088557     1.35200
C207        C  0.78577141  0.21617799  0.28718684     0.77100
C208        C  0.88556406  0.27631547  0.26992049     0.77100
C209        C  0.83204813  0.21427496  0.24363451     0.77000
C210        C  0.83816653  0.27805594  0.31260223     0.77000
O211        O  0.17720581  0.42243844  0.24159346    -0.72200
O212        O  0.10242974  0.39570624  0.25346741    -0.72400
O213        O  0.14016023  0.38609596  0.27233965    -0.72200
O214        O  0.13964122  0.43255510  0.22298258    -0.72200
O215        O  0.12986704  0.40166746  0.19505237    -0.72200
O216        O  0.13072586  0.35474022  0.24495698    -0.72200
O217        O  0.09313577  0.36493067  0.22551460    -0.72200
O218        O  0.16712678  0.39099771  0.21418311    -0.72400
V219        V  0.13965859  0.40859143  0.24704369     1.35200
V220        V  0.13038141  0.37868179  0.22046183     1.35200
C221        C  0.18482527  0.41094949  0.22593916     0.77100
C222        C  0.08504501  0.37575869  0.24130841     0.77100
C223        C  0.13588697  0.36271180  0.26719387     0.77000
C224        C  0.13458698  0.42519416  0.20067558     0.77000
O225        O  0.12754279  0.20733767  0.43840556    -0.72200
O226        O  0.20301125  0.23742528  0.42709507    -0.72400
O227        O  0.16694998  0.20227511  0.45955059    -0.72200
O228        O  0.16293549  0.24183880  0.40543077    -0.72200
O229        O  0.17017343  0.27504324  0.42985301    -0.72200
O230        O  0.17598588  0.23564746  0.48444460    -0.72200
O231        O  0.21026919  0.27096498  0.45106585    -0.72200
O232        O  0.13592808  0.24058828  0.46323762    -0.72400
V233        V  0.16533810  0.22290141  0.43308456     1.35200
V234        V  0.17293815  0.25488330  0.45671471     1.35200
C235        C  0.11900882  0.21908724  0.45281580     0.77100
C236        C  0.21946615  0.25966306  0.43701577     0.77100
C237        C  0.17200640  0.21192570  0.48114382     0.77000
C238        C  0.16534650  0.26490885  0.40831428     0.77000
O239        O  0.51229586  0.39495407  0.41036428    -0.72200
O240        O  0.43682100  0.35337797  0.42350053    -0.72400
O241        O  0.47166863  0.34941739  0.39231433    -0.72200
O242        O  0.47825344  0.39904834  0.44202367    -0.72200
O243        O  0.46959134  0.42204678  0.41521260    -0.72200
O244        O  0.46443799  0.37276471  0.36474065    -0.79400
O245        O  0.42977166  0.37663478  0.39575433    -0.72200
O246        O  0.50409101  0.41865765  0.38397044    -0.72400
V247        V  0.47452059  0.37459690  0.41656682     1.35200
V248        V  0.46711470  0.39702927  0.39044366     1.35200
C249        C  0.52091627  0.41428941  0.39510277     0.77100
C250        C  0.42039989  0.35790187  0.41151266     0.77100
C251        C  0.46724345  0.35265426  0.37007509     0.77000
C252        C  0.47558589  0.41925618  0.43712831     0.77000
O253        O  0.46003456  0.57056553  0.60265898    -0.72200
O254        O  0.53476182  0.61550153  0.58844412    -0.72400
O255        O  0.49510054  0.56924156  0.56973772    -0.72200
O256        O  0.49962142  0.61684271  0.62071002    -0.72200
O257        O  0.50892019  0.59422116  0.64743103    -0.72200
O258        O  0.50550909  0.54692599  0.59579225    -0.72200
O259        O  0.54406626  0.59326355  0.61554443    -0.72200
O260        O  0.47017888  0.54749078  0.62807929    -0.72400
V261        V  0.49754037  0.59255607  0.59585302     1.35200
V262        V  0.50692204  0.57086765  0.62117122     1.35200
C263        C  0.45249383  0.55123680  0.61782275     0.77100
C264        C  0.55216785  0.61240991  0.60024937     0.77100
C265        C  0.49960470  0.55003139  0.57393696     0.77000
C266        C  0.50539608  0.61398840  0.64260536     0.77000
O267        O  0.84444573  0.76018815  0.57630694    -0.72200
O268        O  0.76959453  0.73273985  0.58880461    -0.72400
O269        O  0.80803715  0.72424479  0.60805168    -0.72200
O270        O  0.80605713  0.76894237  0.55750654    -0.72200
O271        O  0.79650958  0.73736556  0.53032243    -0.72200
O272        O  0.79839513  0.69226618  0.58129305    -0.72200
O273        O  0.76042128  0.70150162  0.56136442    -0.72200
O274        O  0.83445504  0.72783264  0.54991243    -0.72400
V275        V  0.80686551  0.74591708  0.58215310     1.35200
V276        V  0.79765580  0.71536841  0.55626382     1.35200
C277        C  0.85210922  0.74834549  0.56108374     0.77100
C278        C  0.75226434  0.71262684  0.57676958     0.77100
C279        C  0.80375122  0.70075056  0.60335652     0.77000
C280        C  0.80055655  0.76075100  0.53544948     0.77000
O281        O  0.79266694  0.53833484  0.76922816    -0.72200
O282        O  0.86817191  0.56860715  0.75837590    -0.72400
O283        O  0.83173154  0.53199760  0.78976847    -0.72200
O284        O  0.82848805  0.57439175  0.73748426    -0.72200
O285        O  0.83481432  0.60602894  0.76354438    -0.72200
O286        O  0.84127851  0.56463530  0.81573271    -0.72200
O287        O  0.87515197  0.60134342  0.78332049    -0.72200
O288        O  0.80099872  0.57007334  0.79592253    -0.72400
V289        V  0.83047853  0.55395787  0.76418968     1.35200
V290        V  0.83791526  0.58483602  0.78916243     1.35200
C291        C  0.78413924  0.54940659  0.78442429     0.77100
C292        C  0.88447725  0.59054176  0.76883287     0.77100
C293        C  0.83718632  0.54102199  0.81158685     0.77000
C294        C  0.83037489  0.59710585  0.74158241     0.77000
O295        O  0.17672323  0.73002013  0.74341955    -0.72200
O296        O  0.10131704  0.68516202  0.75397549    -0.72400
O297        O  0.13842657  0.68394741  0.72379587    -0.72200
O298        O  0.13986683  0.73097529  0.77402640    -0.72200
O299        O  0.13250456  0.75456695  0.74685115    -0.72200
O300        O  0.12944816  0.70607553  0.69628520    -0.72200
O301        O  0.09387486  0.70886938  0.72700503    -0.72200
O302        O  0.16813004  0.75261465  0.71605833    -0.72400
V303        V  0.13892192  0.70795977  0.74827635     1.35200
V304        V  0.13117097  0.73004460  0.72203460     1.35200
C305        C  0.18509919  0.74915551  0.72796872     0.77100
C306        C  0.08477136  0.68979491  0.74240760     0.77100
C307        C  0.13338011  0.68662566  0.70159747     0.77000
C308        C  0.13670839  0.75089481  0.76913660     0.77000
O309        O  0.50866217  0.09186838  0.90964570    -0.72200
O310        O  0.43359262  0.06509573  0.92055544    -0.72400
O311        O  0.47150738  0.05614328  0.94079679    -0.72200
O312        O  0.47110270  0.10123574  0.88979484    -0.72200
O313        O  0.46028405  0.06910635  0.86296921    -0.72200
O314        O  0.46397478  0.02486749  0.91383267    -0.72200
O315        O  0.42485167  0.03281314  0.89445432    -0.72200
O316        O  0.49898551  0.06057727  0.88214122    -0.72400
V317        V  0.47100928  0.07796182  0.91469942     1.35200
V318        V  0.46215458  0.04744502  0.88888914     1.35200
C319        C  0.51650513  0.08056727  0.89398641     0.77100
C320        C  0.41639653  0.04436027  0.90909314     0.77100
C321        C  0.46879165  0.03325693  0.93594738     0.77000
C322        C  0.46529073  0.09287994  0.86780309     0.77000
O323        O  0.12381412  0.89975827  0.93769515    -0.72200
O324        O  0.19765261  0.94743565  0.92134228    -0.72400
O325        O  0.15827658  0.90024632  0.90359884    -0.72200
O326        O  0.16251567  0.94709900  0.95494592    -0.72200
O327        O  0.17297177  0.92499815  0.98122937    -0.72200
O328        O  0.17242500  0.87995728  0.92830832    -0.72200
O329        O  0.20916677  0.92713275  0.94864546    -0.72200
O330        O  0.13634490  0.87733923  0.96148444    -0.72400
V331        V  0.16084162  0.92324732  0.92986031     1.35200
V332        V  0.17248446  0.90274796  0.95441228     1.35200
C333        C  0.11762417  0.88001181  0.95210075     0.77100
C334        C  0.21600881  0.94575316  0.93296923     0.77100
C335        C  0.16433620  0.88200361  0.90702742     0.77000
C336        C  0.16829252  0.94414342  0.97679173     0.77000
O337        O  0.56999391  0.45286769  0.90967657    -0.72200
O338        O  0.61377257  0.52782919  0.92409668    -0.72400
O339        O  0.56753789  0.48763845  0.94203023    -0.72200
O340        O  0.61636170  0.49287146  0.89210330    -0.72200
O341        O  0.59429130  0.50210515  0.86482059    -0.72200
O342        O  0.54552301  0.49767927  0.91537023    -0.72200
O343        O  0.59207446  0.53708135  0.89644256    -0.72200
O344        O  0.54754801  0.46289177  0.88349149    -0.72400
V345        V  0.59149172  0.49050066  0.91647079     1.35200
V346        V  0.57028875  0.49974978  0.89056881     1.35200
C347        C  0.55101688  0.44520841  0.89425770     0.77100
C348        C  0.61060164  0.54523943  0.91227019     0.77100
C349        C  0.54813880  0.49157043  0.93730303     0.77000
C350        C  0.61379898  0.49840136  0.87002014     0.77000
O351        O  0.75871931  0.83871376  0.93744363    -0.72200
O352        O  0.73106736  0.76324099  0.92564898    -0.72400
O353        O  0.72332693  0.80226916  0.90547843    -0.72200
O354        O  0.76703499  0.80012693  0.95691561    -0.72200
O355        O  0.73457999  0.78892367  0.98341198    -0.72200
O356        O  0.69177129  0.79465246  0.93203330    -0.72200
O357        O  0.69852957  0.75463645  0.95133960    -0.72200
O358        O  0.72714199  0.82864614  0.96467422    -0.72400
V359        V  0.74440637  0.80087318  0.93184370     1.35200
V360        V  0.71362981  0.79188941  0.95731948     1.35200
C361        C  0.74739912  0.84637815  0.95327368     0.77100
C362        C  0.71003872  0.74606965  0.93685866     0.77100
C363        C  0.70047742  0.79969832  0.90994091     0.77000
C364        C  0.75829436  0.79376476  0.97877233     0.77000
O365        O  0.73175701  0.17721178  0.77013818    -0.72200
O366        O  0.68620562  0.10265585  0.75603113    -0.72400
O367        O  0.68521472  0.13812428  0.78824289    -0.72200
O368        O  0.73282656  0.14229087  0.73757335    -0.72200
O369        O  0.75318092  0.12915550  0.76323741    -0.72200
O370        O  0.70822968  0.13000955  0.81537592    -0.72200
O371        O  0.70661336  0.09266842  0.78442746    -0.72200
O372        O  0.75524182  0.16655395  0.79445104    -0.72400
V373        V  0.70940411  0.13982612  0.76347087     1.35200
V374        V  0.73042191  0.12980942  0.78887281     1.35200
C375        C  0.75167853  0.18448557  0.78432739     0.77100
C376        C  0.68818823  0.08493927  0.76854725     0.77100
C377        C  0.68852658  0.13352710  0.81042472     0.77000
C378        C  0.75119956  0.13662476  0.74165579     0.77000
O379        O  0.54320634  0.79277674  0.74196121    -0.72200
O380        O  0.56945939  0.86748082  0.75516228    -0.72400
O381        O  0.53478882  0.83139710  0.72271627    -0.72200
O382        O  0.57726505  0.82832681  0.77481330    -0.72200
O383        O  0.61065156  0.83952114  0.74947791    -0.72200
O384        O  0.56736167  0.84158890  0.69657060    -0.72200
O385        O  0.60165456  0.87739360  0.72866548    -0.72200
O386        O  0.57684554  0.80365114  0.71694935    -0.72400
V387        V  0.55683493  0.83023698  0.74818031     1.35200
V388        V  0.58846720  0.84030152  0.72341464     1.35200
C389        C  0.55602972  0.78561595  0.72744691     0.77100
C390        C  0.58986444  0.88517237  0.74363644     0.77100
C391        C  0.54375374  0.83726544  0.70087675     0.77000
C392        C  0.60098994  0.83294299  0.77115601     0.77000
O393        O  0.90145207  0.11828179  0.57807472    -0.72200
O394        O  0.94781491  0.19310475  0.59247881    -0.72400
O395        O  0.90075799  0.15406803  0.61044934    -0.72200
O396        O  0.94882052  0.15720012  0.56051700    -0.72200
O397        O  0.92788225  0.16801969  0.53334832    -0.72200
O398        O  0.87958333  0.16505153  0.58369421    -0.72200
O399        O  0.92666156  0.20335390  0.56509147    -0.72200
O400        O  0.88044466  0.12976207  0.55159617    -0.72400
V401        V  0.92430849  0.15585765  0.58488107     1.35200
V402        V  0.90405107  0.16629158  0.55897549     1.35200
C403        C  0.88271553  0.11140781  0.56246020     0.77100
C404        C  0.94523679  0.21099240  0.58080061     0.77100
C405        C  0.88196698  0.15894246  0.60569257     0.77000
C406        C  0.94685799  0.16346853  0.53852841     0.77000
O407        O  0.09434145  0.50435372  0.60518108    -0.72200
O408        O  0.06707107  0.42901525  0.59388740    -0.72400
O409        O  0.05951378  0.46768336  0.57295486    -0.72200
O410        O  0.10219089  0.46595879  0.62564718    -0.72200
O411        O  0.06956730  0.45600729  0.65167490    -0.72200
O412        O  0.02704814  0.45893141  0.59879925    -0.72200
O413        O  0.03464414  0.42019511  0.61981028    -0.72200
O414        O  0.06158131  0.49465549  0.63096622    -0.72400
V415        V  0.08013944  0.46654809  0.59990090     1.35200
V416        V  0.04884473  0.45763180  0.62477583     1.35200
C417        C  0.08239400  0.51224097  0.62004911     0.77100
C418        C  0.04628809  0.41177079  0.60529132     0.77100
C419        C  0.03618393  0.46410259  0.57687985     0.77000
C420        C  0.09322113  0.46048932  0.64752661     0.77000
O421        O  0.87600967  0.45633167  0.41263671    -0.72200
O422        O  0.90352354  0.53171764  0.42324418    -0.72400
O423        O  0.86745721  0.49436318  0.39258550    -0.72200
O424        O  0.91162076  0.49291858  0.44387797    -0.72200
O425        O  0.94333570  0.50105244  0.41734693    -0.72200
O426        O  0.89945535  0.50444286  0.36581491    -0.72200
O427        O  0.93560447  0.53984297  0.39715769    -0.72200
O428        O  0.90775298  0.46583561  0.38567690    -0.72400
V429        V  0.89031240  0.49408016  0.41763354     1.35200
V430        V  0.92090589  0.50264696  0.39203256     1.35200
C431        C  0.88746735  0.44843290  0.39725169     0.77100
C432        C  0.92428147  0.54863731  0.41159201     0.77100
C433        C  0.87580520  0.49974848  0.37053026     0.77000
C434        C  0.93457489  0.49572842  0.43938385     0.77000
O435        O  0.06355104  0.84157587  0.43323186    -0.72200
O436        O  0.01773025  0.76618576  0.42214405    -0.72400
O437        O  0.01857249  0.80277335  0.45406202    -0.72200
O438        O  0.06276622  0.80543057  0.40063692    -0.72200
O439        O  0.08735848  0.79708862  0.42566196    -0.72200
O440        O  0.04153135  0.79263866  0.47950125    -0.72200
O441        O  0.04269518  0.75782479  0.44668235    -0.72200
O442        O  0.08694832  0.83198117  0.45866117    -0.72400
V443        V  0.04110401  0.80376420  0.42797693     1.35200
V444        V  0.06415883  0.79507772  0.45215701     1.35200
C445        C  0.08320045  0.84947999  0.44790903     0.77100
C446        C  0.02258392  0.74919025  0.43267579     0.77100
C447        C  0.02217351  0.79709154  0.47576560     0.77000
C448        C  0.08289563  0.80227266  0.40394459     0.77000
O449        O  0.43180574  0.17647637  0.26579241    -0.72200
O450        O  0.40461843  0.10121555  0.25384254    -0.72400
O451        O  0.39614805  0.13988378  0.23408351    -0.72200
O452        O  0.44063802  0.13818382  0.28516701    -0.72200
O453        O  0.40876029  0.12810477  0.31205240    -0.72200
O454        O  0.36446180  0.13085537  0.26092932    -0.72200
O455        O  0.37293638  0.09226877  0.28066671    -0.72200
O456        O  0.39974935  0.16627372  0.29254222    -0.72400
V457        V  0.41769663  0.13872214  0.26019974     1.35200
V458        V  0.38711325  0.12952880  0.28597887     1.35200
C459        C  0.42009768  0.18402509  0.28127450     0.77100
C460        C  0.38412101  0.08391688  0.26556181     0.77100
C461        C  0.37293882  0.13627174  0.23883578     0.77000
C462        C  0.43240694  0.13290118  0.30730034     0.77000
O463        O  0.23365775  0.79137388  0.23815071    -0.72200
O464        O  0.28081414  0.86567832  0.25227225    -0.72400
O465        O  0.23327407  0.82735762  0.27022627    -0.72200
O466        O  0.28116270  0.82937693  0.22056007    -0.72200
O467        O  0.26142797  0.84167403  0.19339465    -0.72200
O468        O  0.21180304  0.83752005  0.24308683    -0.72200
O469        O  0.25960062  0.87647054  0.22539069    -0.72200
O470        O  0.21361123  0.80292569  0.21067122    -0.72400
V471        V  0.25681001  0.82867336  0.24480099     1.35200
V472        V  0.23699789  0.83943420  0.21868827     1.35200
C473        C  0.21553788  0.78457466  0.22194991     0.77100
C474        C  0.27846622  0.88375969  0.24077498     0.77100
C475        C  0.21405420  0.83149433  0.26517141     0.77000
C476        C  0.27983666  0.83628996  0.19865580     0.77000
O477        O  0.20754371  0.12409175  0.07653589    -0.72200
O478        O  0.23581882  0.19970351  0.08827747    -0.72400
O479        O  0.19948064  0.16265325  0.05702458    -0.72200
O480        O  0.24315878  0.16035624  0.10831795    -0.72200
O481        O  0.27552392  0.17014809  0.08207514    -0.72200
O482        O  0.23108520  0.17145731  0.03011725    -0.72200
O483        O  0.26699162  0.20796588  0.06111164    -0.72200
O484        O  0.24024698  0.13375791  0.05069573    -0.72400
V485        V  0.22212865  0.16194108  0.08206477     1.35200
V486        V  0.25280638  0.17065425  0.05653349     1.35200
C487        C  0.21942191  0.11621738  0.06155379     0.77100
C488        C  0.25638906  0.21675294  0.07640407     0.77100
C489        C  0.20758421  0.16716837  0.03486042     0.77000
C490        C  0.26661705  0.16448272  0.10404471     0.77000
O491        O  0.40144659  0.51015849  0.10457791    -0.72200
O492        O  0.35500921  0.43487389  0.09379629    -0.72400
O493        O  0.35628346  0.47192279  0.12551232    -0.72200
O494        O  0.40040938  0.47364105  0.07235704    -0.72200
O495        O  0.42505731  0.46587414  0.09785038    -0.72200
O496        O  0.37838045  0.46052010  0.15083661    -0.72200
O497        O  0.38016738  0.42610967  0.11772436    -0.72200
O498        O  0.42408125  0.50047013  0.13084717    -0.72400
V499        V  0.37873105  0.47242565  0.09951883     1.35200
V500        V  0.40145379  0.46347196  0.12388015     1.35200
C501        C  0.42070634  0.51802847  0.11968098     0.77100
C502        C  0.36000773  0.41770629  0.10376121     0.77100
C503        C  0.35935631  0.46543482  0.14706532     0.77000
C504        C  0.42055170  0.47058248  0.07602139     0.77000
C505        C  0.29954151  0.34823383  0.09479045    -0.11200
C506        C  0.31188398  0.33223698  0.09223332     0.05900
C507        C  0.34000442  0.34467248  0.09336347    -0.10000
C508        C  0.35545167  0.37241079  0.09713330    -0.11600
C509        C  0.34321735  0.38849101  0.09925319    -0.01400
C510        C  0.31512873  0.37623000  0.09793393    -0.10500
C511        C  0.29591961  0.30279384  0.08755576     0.05900
H512        H  0.35003374  0.33282524  0.09155137     0.07900
H513        H  0.37707950  0.38139879  0.09811110     0.11300
H514        H  0.30526329  0.38822424  0.09979887     0.11600
H515        H  0.27791263  0.33913594  0.09388229     0.07900
C516        C  0.27389585  0.28577499  0.10260325    -0.11200
C517        C  0.26041822  0.25771960  0.09889616    -0.10500
C518        C  0.26865695  0.24633999  0.07996529    -0.01400
C519        C  0.29007627  0.26364186  0.06447883    -0.11600
C520        C  0.30354002  0.29139923  0.06828735    -0.10000
H521        H  0.26769632  0.29410252  0.11765349     0.07900
H522        H  0.24400661  0.24494218  0.11112981     0.11600
H523        H  0.29683232  0.25570469  0.04953663     0.11300
H524        H  0.32017499  0.30405309  0.05619271     0.07900
C525        C  0.34812289  0.14289732  0.17559555    -0.11200
C526        C  0.32727508  0.14833643  0.18178657     0.05900
C527        C  0.32111758  0.14873933  0.20701549    -0.10000
C528        C  0.33540072  0.14400874  0.22545454    -0.11600
C529        C  0.35656164  0.13922306  0.21919667    -0.01400
C530        C  0.36272391  0.13865877  0.19407970    -0.10500
C531        C  0.31204997  0.15348715  0.16206866     0.05900
H532        H  0.30559486  0.15332060  0.21268446     0.07900
H533        H  0.33038313  0.14486639  0.24464496     0.11300
H534        H  0.37886886  0.13487120  0.18867883     0.11600
H535        H  0.35310936  0.14173197  0.15647388     0.07900
C536        C  0.32454577  0.16620523  0.13967890    -0.11200
C537        C  0.30999118  0.17014102  0.12091742    -0.10500
C538        C  0.28265403  0.16182590  0.12422471    -0.01400
C539        C  0.27031390  0.14982308  0.14678776    -0.11600
C540        C  0.28471188  0.14550628  0.16536496    -0.10000
H541        H  0.34569924  0.17327832  0.13658829     0.07900
H542        H  0.32010130  0.17962865  0.10382761     0.11600
H543        H  0.24920398  0.14304204  0.14989046     0.11300
H544        H  0.27415145  0.13527966  0.18203693     0.07900
C545        C  0.32906977  0.95019891  0.26984486    -0.11200
C546        C  0.33191113  0.96862672  0.25118527     0.05900
C547        C  0.31783470  0.95876988  0.22896299    -0.10000
C548        C  0.30062681  0.93120189  0.22573147    -0.11600
C549        C  0.29741632  0.91277811  0.24447131    -0.01400
C550        C  0.31219412  0.92246599  0.26640731    -0.10500
C551        C  0.34764063  0.99812407  0.25550274     0.05900
H552        H  0.31939473  0.97249515  0.21440899     0.07900
H553        H  0.28969593  0.92428526  0.20851881     0.11300
H554        H  0.31015494  0.90870555  0.28110288     0.11600
H555        H  0.33974709  0.95730152  0.28715605     0.07900
C556        C  0.34357675  0.00905189  0.27732184    -0.11200
C557        C  0.35594590  0.03688602  0.28056658    -0.10500
C558        C  0.37299200  0.05454108  0.26223171    -0.01400
C559        C  0.37797420  0.04369984  0.24075462    -0.11600
C560        C  0.36516469  0.01568953  0.23730745    -0.10000
H561        H  0.32997040  0.99605725  0.29149839     0.07900
H562        H  0.35182370  0.04461857  0.29739565     0.11600
H563        H  0.39100576  0.05682611  0.22634076     0.11300
H564        H  0.36867570  0.00773035  0.22032339     0.07900
C565        C  0.11725274  0.82153344  0.34116398    -0.11200
C566        C  0.13698443  0.81372193  0.34329009     0.05900
C567        C  0.13800136  0.80110746  0.36534395    -0.10000
C568        C  0.12036137  0.79714904  0.38498078    -0.11600
C569        C  0.10095968  0.80532651  0.38291320    -0.01400
C570        C  0.09940626  0.81725833  0.36068274    -0.10500
C571        C  0.15682645  0.81925680  0.32293469     0.05900
H572        H  0.15246540  0.79419498  0.36749122     0.07900
H573        H  0.12190269  0.78769984  0.40176157     0.11300
H574        H  0.08473849  0.82393255  0.35854904     0.11600
H575        H  0.11601145  0.83158503  0.32469652     0.07900
C576        C  0.14961190  0.81789089  0.29784057    -0.11200
C577        C  0.16836854  0.82271235  0.27894406    -0.10500
C578        C  0.19462805  0.82866761  0.28475744    -0.01400
C579        C  0.20192690  0.83041520  0.30973414    -0.11600
C580        C  0.18339168  0.82601695  0.32855541    -0.10000
H581        H  0.12928377  0.81246528  0.29274013     0.07900
H582        H  0.16213134  0.82097240  0.25983864     0.11600
H583        H  0.22210875  0.83519914  0.31478245     0.11300
H584        H  0.18997488  0.82802658  0.34754940     0.07900
C585        C  0.00078741  0.67519198  0.43204830    -0.11200
C586        C  0.97442368  0.66368991  0.42329695     0.05900
C587        C  0.96351238  0.68039543  0.41775481    -0.10000
C588        C  0.97916429  0.70842499  0.42041461    -0.11600
C589        C  0.00567177  0.71987423  0.42906272    -0.01400
C590        C  0.01616838  0.70291131  0.43504059    -0.10500
C591        C  0.95950808  0.63442041  0.41874935     0.05900
H592        H  0.94321040  0.67182094  0.41084252     0.07900
H593        H  0.97056295  0.72107753  0.41590165     0.11300
H594        H  0.03650414  0.71111069  0.44177323     0.11600
H595        H  0.00953715  0.66263008  0.43647655     0.07900
C596        C  0.97142333  0.62296483  0.40394582    -0.11200
C597        C  0.95962289  0.59519682  0.40158904    -0.10500
C598        C  0.93558913  0.57807502  0.41410497    -0.01400
C599        C  0.92306753  0.58950210  0.42836091    -0.11600
C600        C  0.93493091  0.61760594  0.43058435    -0.10000
H601        H  0.99029507  0.63561449  0.39453822     0.07900
H602        H  0.96969638  0.58716002  0.39023389     0.11600
H603        H  0.90438607  0.57677064  0.43799012     0.11300
H604        H  0.92552283  0.62616157  0.44217052     0.07900
C605        C  0.95076740  0.47437432  0.50041494    -0.11200
C606        C  0.97778153  0.48097433  0.49729926     0.05900
C607        C  0.99061403  0.49294416  0.47476771    -0.10000
C608        C  0.97682546  0.49802028  0.45596288    -0.11600
C609        C  0.94996533  0.49164171  0.45938010    -0.01400
C610        C  0.93721643  0.47988854  0.48186469    -0.10500
C611        C  0.99234788  0.47567513  0.51763776     0.05900
H612        H  0.01150313  0.49878336  0.47166673     0.07900
H613        H  0.98717980  0.50701541  0.43883806     0.11300
H614        H  0.91638170  0.47432301  0.48499710     0.11600
H615        H  0.93980487  0.46451056  0.51702616     0.07900
C616        C  0.98574456  0.47668857  0.54264867    -0.11200
C617        C  0.99936893  0.47203862  0.56176129    -0.10500
C618        C  0.02043420  0.46682349  0.55647160    -0.01400
C619        C  0.02712094  0.46567449  0.53159636    -0.11600
C620        C  0.01310310  0.46977289  0.51240081    -0.10000
H621        H  0.97040251  0.48177582  0.54768362     0.07900
H622        H  0.99397508  0.47337829  0.58071494     0.11600
H623        H  0.04323576  0.46155817  0.52694018     0.11300
H624        H  0.01849847  0.46819633  0.49352263     0.07900
C625        C  0.99534079  0.27816020  0.60945752    -0.11200
C626        C  0.99605337  0.29642723  0.59156659     0.05900
C627        C  0.98058778  0.28629072  0.57010537    -0.10000
C628        C  0.96430702  0.25859418  0.56679507    -0.11600
C629        C  0.96335159  0.24023836  0.58467353    -0.01400
C630        C  0.97932819  0.25026966  0.60592469    -0.10500
C631        C  0.01132535  0.32599283  0.59576784     0.05900
H632        H  0.98045051  0.29986167  0.55619617     0.07900
H633        H  0.95232696  0.25154220  0.55015951     0.11300
H634        H  0.97898845  0.23662500  0.62000501     0.11600
H635        H  0.00710193  0.28549478  0.62618692     0.07900
C636        C  0.00826561  0.33684326  0.61810727    -0.11200
C637        C  0.02001938  0.36471570  0.62117579    -0.10500
C638        C  0.03553847  0.38241366  0.60217168    -0.01400
C639        C  0.03958427  0.37165495  0.58017976    -0.11600
C640        C  0.02731093  0.34366819  0.57689588    -0.10000
H641        H  0.99587924  0.32373789  0.63283742     0.07900
H642        H  0.01671533  0.37245322  0.63840257     0.11600
H643        H  0.05142160  0.38482413  0.56524877     0.11300
H644        H  0.03001982  0.33579202  0.55949676     0.07900
C645        C  0.80448642  0.13095091  0.70431746    -0.11200
C646        C  0.80724162  0.14709601  0.68363063     0.05900
C647        C  0.79125153  0.15946680  0.68224786    -0.10000
C648        C  0.77286089  0.15566559  0.70099977    -0.11600
C649        C  0.77021018  0.13965973  0.72169770    -0.01400
C650        C  0.78625983  0.12739777  0.72325904    -0.10500
C651        C  0.82669415  0.15104748  0.66356536     0.05900
H652        H  0.79321956  0.17241059  0.66685142     0.07900
H653        H  0.76100054  0.16569632  0.69947544     0.11300
H654        H  0.78454854  0.11491505  0.73897651     0.11600
H655        H  0.81623213  0.12079729  0.70575526     0.07900
C656        C  0.85189700  0.15388224  0.66924065    -0.11200
C657        C  0.86989692  0.15676123  0.65039493    -0.10500
C658        C  0.86325290  0.15716130  0.62547149    -0.01400
C659        C  0.83835370  0.15498220  0.61973082    -0.11600
C660        C  0.82020332  0.15183186  0.63860134    -0.10000
H661        H  0.85775481  0.15397051  0.68825719     0.07900
H662        H  0.88909666  0.15868059  0.65537158     0.11600
H663        H  0.83267566  0.15506860  0.60067758     0.11300
H664        H  0.80081453  0.14939990  0.63358013     0.07900
C665        C  0.65094945  0.01003069  0.78063591    -0.11200
C666        C  0.63715592  0.99983052  0.75835475     0.05900
C667        C  0.63904365  0.01792851  0.73976564    -0.10000
C668        C  0.65494283  0.04575569  0.74325576    -0.11600
C669        C  0.66962026  0.05584583  0.76517410    -0.01400
C670        C  0.66715291  0.03771885  0.78394373    -0.10500
C671        C  0.62281808  0.97040941  0.75387830     0.05900
H672        H  0.62850601  0.01049166  0.72244038     0.07900
H673        H  0.65643752  0.05929905  0.72853893     0.11300
H674        H  0.67805703  0.04494555  0.80113349     0.11600
H675        H  0.65005129  0.99651273  0.79513371     0.07900
C676        C  0.62812376  0.96016073  0.73224033    -0.11200
C677        C  0.61702244  0.93245284  0.72893423    -0.10500
C678        C  0.60005824  0.91432953  0.74703540    -0.01400
C679        C  0.59392967  0.92448437  0.76832381    -0.11600
C680        C  0.60546209  0.95234919  0.77183906    -0.10000
H681        H  0.64167886  0.97363230  0.71827573     0.07900
H682        H  0.62198007  0.92520179  0.71224646     0.11600
H683        H  0.58091976  0.91095278  0.78253481     0.11300
H684        H  0.60107876  0.95983368  0.78868314     0.07900
C685        C  0.67843888  0.80799115  0.84581807    -0.11200
C686        C  0.65823243  0.81462111  0.85117772     0.05900
C687        C  0.65152776  0.81531818  0.87624120    -0.10000
C688        C  0.66456063  0.80959699  0.89526751    -0.11600
C689        C  0.68502578  0.80350493  0.88980913    -0.01400
C690        C  0.69177244  0.80274654  0.86486866    -0.10500
C691        C  0.64404926  0.82041212  0.83077769     0.05900
H692        H  0.63652304  0.82083619  0.88133638     0.07900
H693        H  0.65915503  0.81070829  0.91427997     0.11300
H694        H  0.70743416  0.79803842  0.86002511     0.11600
H695        H  0.68386251  0.80658484  0.82690123     0.07900
C696        C  0.65714306  0.83226678  0.80828728    -0.11200
C697        C  0.64343068  0.83670516  0.78897436    -0.10500
C698        C  0.61634780  0.82973788  0.79176831    -0.01400
C699        C  0.60344246  0.81848057  0.81435677    -0.11600
C700        C  0.61697682  0.81371821  0.83347919    -0.10000
H701        H  0.67811899  0.83828693  0.80554114     0.07900
H702        H  0.65398136  0.84549553  0.77186354     0.11600
H703        H  0.58251021  0.81268636  0.81712947     0.11300
H704        H  0.60589281  0.80412185  0.85013387     0.07900
C705        C  0.69363693  0.67768913  0.91051036    -0.11200
C706        C  0.67443346  0.66016366  0.92766471     0.05900
C707        C  0.66803261  0.67109827  0.94816851    -0.10000
C708        C  0.67991790  0.69896017  0.95110078    -0.11600
C709        C  0.69879074  0.71660895  0.93377969    -0.01400
C710        C  0.70594299  0.70570113  0.91368063    -0.10500
C711        C  0.65970289  0.63063686  0.92348641     0.05900
H712        H  0.65313265  0.65806969  0.96150920     0.07900
H713        H  0.67410270  0.70670068  0.96690610     0.11300
H714        H  0.72046480  0.71877987  0.90011531     0.11600
H715        H  0.69894553  0.66967707  0.89457424     0.07900
C716        C  0.64724807  0.62033997  0.90066433    -0.11200
C717        C  0.63141177  0.59259623  0.89716555    -0.10500
C718        C  0.62809896  0.57448479  0.91624842    -0.01400
C719        C  0.64113042  0.58468970  0.93890575    -0.11600
C720        C  0.65653432  0.61257080  0.94260266    -0.10000
H721        H  0.64910324  0.63382210  0.88575631     0.07900
H722        H  0.62170305  0.58528204  0.87946502     0.11600
H723        H  0.63883921  0.57116509  0.95392298     0.11300
H724        H  0.66592156  0.62006460  0.96039254     0.07900
C725        C  0.47392764  0.46571013  0.03827562    -0.11200
C726        C  0.47340542  0.47803076  0.01590053     0.05900
C727        C  0.45493380  0.48743238  0.01341938    -0.10000
C728        C  0.43755618  0.48468636  0.03285897    -0.11600
C729        C  0.43845901  0.47278104  0.05529907    -0.01400
C730        C  0.45681023  0.46331484  0.05782814    -0.10500
C731        C  0.49246079  0.48161145  0.99550305     0.05900
H732        H  0.45426393  0.49742657  0.99667016     0.07900
H733        H  0.42372360  0.49236594  0.03046993     0.11300
H734        H  0.45779044  0.45387950  0.07484743     0.11600
H735        H  0.48750035  0.45772673  0.04068916     0.07900
C736        C  0.51876125  0.48734878  0.00093070    -0.11200
C737        C  0.53674007  0.49063588  0.98195476    -0.10500
C738        C  0.52906824  0.48875307  0.95708915    -0.01400
C739        C  0.50295002  0.48333834  0.95149129    -0.11600
C740        C  0.48475692  0.47960741  0.97053361    -0.10000
H741        H  0.52562167  0.48964497  0.01985393     0.07900
H742        H  0.55683912  0.49494463  0.98677764     0.11600
H743        H  0.49646440  0.48144734  0.93246431     0.11300
H744        H  0.46451754  0.47476615  0.96566202     0.07900
C745        C  0.19477623  0.99294081  0.03034590    -0.11200
C746        C  0.18172750  0.00810082  0.02655022     0.05900
C747        C  0.16183153  0.99977704  0.00832927    -0.10000
C748        C  0.15643464  0.97789816  0.99306235    -0.11600
C749        C  0.17049762  0.96363646  0.99595034    -0.01400
C750        C  0.18901937  0.97069505  0.01530666    -0.10500
C751        C  0.19119639  0.03442645  0.03901720     0.05900
H752        H  0.15169415  0.01124151  0.00482957     0.07900
H753        H  0.14200097  0.97280449  0.97826899     0.11300
H754        H  0.20023242  0.96013123  0.01778802     0.11600
H755        H  0.21018717  0.99896961  0.04433049     0.07900
C756        C  0.17302992  0.04207314  0.04873129    -0.11200
C757        C  0.18220264  0.06835531  0.05747351    -0.10500
C758        C  0.20959019  0.08747195  0.05607497    -0.01400
C759        C  0.22773049  0.07949398  0.04709617    -0.11600
C760        C  0.21867481  0.05324985  0.03883013    -0.10000
H761        H  0.15171359  0.02789566  0.04899583     0.07900
H762        H  0.16781707  0.07406949  0.06416940     0.11600
H763        H  0.24897713  0.09382817  0.04583652     0.11300
H764        H  0.23305822  0.04805748  0.03109706     0.07900
C765        C  0.59096193  0.12694645  0.88390546    -0.11200
C766        C  0.59872475  0.10909035  0.87365197     0.05900
C767        C  0.57994527  0.08158149  0.87240396    -0.10000
C768        C  0.55340559  0.07226847  0.87981993    -0.11600
C769        C  0.54527307  0.09023109  0.88912985    -0.01400
C770        C  0.56448928  0.11750090  0.89194175    -0.10500
C771        C  0.62474407  0.11929675  0.86069041     0.05900
H772        H  0.58542324  0.06751791  0.86426160     0.07900
H773        H  0.53903152  0.05110905  0.87763262     0.11300
H774        H  0.55871093  0.13173873  0.89905794     0.11600
H775        H  0.60514156  0.14827703  0.88484350     0.07900
C776        C  0.63026500  0.13638381  0.84029714    -0.11200
C777        C  0.65194336  0.14211504  0.82471841    -0.10500
C778        C  0.66882899  0.13121176  0.82944357    -0.01400
C779        C  0.66444024  0.11561201  0.85084428    -0.11600
C780        C  0.64229235  0.10937401  0.86620064    -0.10000
H781        H  0.61679286  0.14395752  0.83552978     0.07900
H782        H  0.65486370  0.15422810  0.80838883     0.11600
H783        H  0.67710480  0.10688536  0.85485080     0.11300
H784        H  0.63825851  0.09603923  0.88180894     0.07900
C785        C  0.29035730  0.98694008  0.94562252    -0.11200
C786        C  0.30107921  0.99675380  0.92203639     0.05900
C787        C  0.28322200  0.99123567  0.90214948    -0.10000
C788        C  0.25536334  0.97563640  0.90570247    -0.11600
C789        C  0.24491306  0.96486636  0.92910226    -0.01400
C790        C  0.26267303  0.97104007  0.94905490    -0.10500
C791        C  0.33072862  0.01082780  0.91802588     0.05900
H792        H  0.29083453  0.99868005  0.88377445     0.07900
H793        H  0.24211150  0.97110580  0.89001857     0.11300
H794        H  0.25512162  0.96312913  0.96734172     0.11600
H795        H  0.30344570  0.99054513  0.96127957     0.07900
C796        C  0.34851689  0.02943554  0.93541803    -0.11200
C797        C  0.37640891  0.04088976  0.93241337    -0.10500
C798        C  0.38706098  0.03365677  0.91215360    -0.01400
C799        C  0.36927592  0.01546629  0.89460293    -0.11600
C800        C  0.34153319  0.00431373  0.89743232    -0.10000
H801        H  0.34084284  0.03502162  0.95141509     0.07900
H802        H  0.38959082  0.05491431  0.94619554     0.11600
H803        H  0.37681421  0.00962335  0.87866883     0.11300
H804        H  0.32849271  0.98983217  0.88387333     0.07900
C805        C  0.13964183  0.62998078  0.67166052    -0.11200
C806        C  0.11978474  0.62121306  0.65331478     0.05900
C807        C  0.10686414  0.63641551  0.64894421    -0.10000
C808        C  0.11266122  0.65903944  0.66349961    -0.11600
C809        C  0.13110752  0.66652236  0.68298261    -0.01400
C810        C  0.14506349  0.65224063  0.68645276    -0.10500
C811        C  0.11049951  0.59464201  0.64111833     0.05900
H812        H  0.09158164  0.63022673  0.63481466     0.07900
H813        H  0.10155610  0.66963061  0.66052066     0.11300
H814        H  0.15947743  0.65767021  0.70131021     0.11600
H815        H  0.14978227  0.61862846  0.67563590     0.07900
C816        C  0.12883056  0.58638469  0.63314089    -0.11200
C817        C  0.11975366  0.55991654  0.62494975    -0.10500
C818        C  0.09222296  0.54112207  0.62511745    -0.01400
C819        C  0.07391840  0.54967628  0.63214572    -0.11600
C820        C  0.08291639  0.57616207  0.63983998    -0.10000
H821        H  0.15021392  0.60023200  0.63383305     0.07900
H822        H  0.13426527  0.55380251  0.61966607     0.11600
H823        H  0.05255577  0.53561846  0.63228828     0.11300
H824        H  0.06830094  0.58176018  0.64608019     0.07900
C825        C  0.14592542  0.81336080  0.80266385    -0.11200
C826        C  0.14670534  0.80653322  0.82758221     0.05900
C827        C  0.14253967  0.78064387  0.83298073    -0.10000
C828        C  0.13869429  0.76245258  0.81397906    -0.11600
C829        C  0.13860057  0.76954301  0.78910915    -0.01400
C830        C  0.14173810  0.79498975  0.78364643    -0.10500
C831        C  0.15192705  0.82628011  0.84785376     0.05900
H832        H  0.14223400  0.77436763  0.85191399     0.07900
H833        H  0.13600186  0.74283650  0.81879097     0.11300
H834        H  0.14180542  0.80101308  0.76464824     0.11600
H835        H  0.14929920  0.83317599  0.79772929     0.07900
C836        C  0.16665934  0.82705908  0.86898761    -0.11200
C837        C  0.17097672  0.84524206  0.88824690    -0.10500
C838        C  0.16098032  0.86327194  0.88660252    -0.01400
C839        C  0.14668438  0.86280671  0.86534488    -0.11600
C840        C  0.14206278  0.84446024  0.84631308    -0.10000
H841        H  0.17504112  0.81374165  0.87061816     0.07900
H842        H  0.18214440  0.84522567  0.90435262     0.11600
H843        H  0.13849399  0.87629974  0.86359612     0.11300
H844        H  0.13025052  0.84419231  0.83063100     0.07900
C845        C  0.72015259  0.54816816  0.80298387    -0.11200
C846        C  0.70248560  0.52050151  0.80577777     0.05900
C847        C  0.71101671  0.50210771  0.79861807    -0.10000
C848        C  0.73725996  0.51135359  0.79005414    -0.11600
C849        C  0.75536962  0.53906669  0.78905551    -0.01400
C850        C  0.74639248  0.55735230  0.79491051    -0.10500
C851        C  0.67692128  0.51142340  0.81935741     0.05900
H852        H  0.69769801  0.48065951  0.80055276     0.07900
H853        H  0.74383500  0.49692876  0.78564724     0.11300
H854        H  0.76001652  0.57884298  0.79407378     0.11600
H855        H  0.71423944  0.56279511  0.80859537     0.07900
C856        C  0.67064305  0.49362535  0.83934580    -0.11200
C857        C  0.64940512  0.48865522  0.85521279    -0.10500
C858        C  0.63375419  0.50106028  0.85124296    -0.01400
C859        C  0.63897081  0.51765188  0.83044696    -0.11600
C860        C  0.66056731  0.52298369  0.81473295    -0.10000
H861        H  0.68312604  0.48477291  0.84357231     0.07900
H862        H  0.64572687  0.47569620  0.87108718     0.11600
H863        H  0.62724920  0.52752948  0.82707036     0.11300
H864        H  0.66504096  0.53681117  0.79942662     0.07900
C865        C  0.95443825  0.60283981  0.75292932    -0.11200
C866        C  0.96999061  0.63048129  0.75814398     0.05900
C867        C  0.95719195  0.64464897  0.76653610    -0.10000
C868        C  0.92945877  0.63150266  0.76981485    -0.11600
C869        C  0.91376227  0.60391487  0.76449419    -0.01400
C870        C  0.92645207  0.58968596  0.75584213    -0.10500
C871        C  0.99939182  0.64502525  0.75406949     0.05900
H872        H  0.96872784  0.66593447  0.77075509     0.07900
H873        H  0.92025307  0.64304476  0.77641665     0.11300
H874        H  0.91481504  0.56840146  0.75168698     0.11600
H875        H  0.96389464  0.59158427  0.74621672     0.07900
C876        C  0.01583713  0.63529206  0.76362644    -0.11200
C877        C  0.04373722  0.64980956  0.76011931    -0.10500
C878        C  0.05547183  0.67401801  0.74665974    -0.01400
C879        C  0.03886315  0.68352270  0.73705124    -0.11600
C880        C  0.01121747  0.66929437  0.74082759    -0.10000
H881        H  0.00713600  0.61672411  0.77411313     0.07900
H882        H  0.05606360  0.64206592  0.76777703     0.11600
H883        H  0.04725391  0.70216967  0.72669246     0.11300
H884        H  0.99897814  0.67715759  0.73317917     0.07900
C885        C  0.91532211  0.74818586  0.54073373    -0.11200
C886        C  0.93420114  0.77573142  0.54059991     0.05900
C887        C  0.92646577  0.79419821  0.54945423    -0.10000
C888        C  0.90003818  0.78528271  0.55740652    -0.11600
C889        C  0.88082095  0.75785776  0.55604566    -0.01400
C890        C  0.88886837  0.73937387  0.54812049    -0.10500
C891        C  0.96024895  0.78505828  0.52768637     0.05900
H892        H  0.94064528  0.81556687  0.54941704     0.07900
H893        H  0.89430908  0.79993145  0.56339717     0.11300
H894        H  0.87447993  0.71809842  0.54703872     0.11600
H895        H  0.92060737  0.73356073  0.53367487     0.07900
C896        C  0.97599616  0.77267019  0.53175692    -0.11200
C897        C  0.99761318  0.77794251  0.51595318    -0.10500
C898        C  0.00334977  0.79521672  0.49558039    -0.01400
C899        C  0.98856053  0.80871851  0.49251465    -0.11600
C900        C  0.96741289  0.80385729  0.50847220    -0.10000
H901        H  0.97085996  0.75810849  0.54650660     0.07900
H902        H  0.00869480  0.76727167  0.51872941     0.11600
H903        H  0.99263041  0.82226867  0.47705768     0.11300
H904        H  0.95548174  0.81345416  0.50472167     0.07900
C905        C  0.82582779  0.65205691  0.70607618    -0.11200
C906        C  0.81785542  0.64037814  0.68241539     0.05900
C907        C  0.81457823  0.61449874  0.67851271    -0.10000
C908        C  0.81920408  0.60080263  0.69758197    -0.11600
C909        C  0.82680020  0.61236802  0.72121099    -0.01400
C910        C  0.83004167  0.63813749  0.72527577    -0.10500
C911        C  0.81311542  0.65508821  0.66191207     0.05900
H912        H  0.80793732  0.60446375  0.66084950     0.07900
H913        H  0.81635284  0.58087634  0.69388594     0.11300
H914        H  0.83590196  0.64758934  0.74328081     0.11600
H915        H  0.82917131  0.67213609  0.70981073     0.07900
C916        C  0.80385206  0.67341260  0.66697078    -0.11200
C917        C  0.80053338  0.68799959  0.64788038    -0.10500
C918        C  0.80564873  0.68409402  0.62321828    -0.01400
C919        C  0.81401968  0.66526178  0.61791353    -0.11600
C920        C  0.81805584  0.65118156  0.63705072    -0.10000
H921        H  0.79907407  0.67652695  0.68566273     0.07900
H922        H  0.79384939  0.70231174  0.65240182     0.11600
H923        H  0.81840776  0.66216071  0.59904534     0.11300
H924        H  0.82573364  0.63776337  0.63228791     0.07900
C925        C  0.62684437  0.64808416  0.61241004    -0.11200
C926        C  0.63744404  0.66347308  0.59086332     0.05900
C927        C  0.61961588  0.66288467  0.57265848    -0.10000
C928        C  0.59179018  0.64681285  0.57579590    -0.11600
C929        C  0.58134491  0.63070040  0.59698274    -0.01400
C930        C  0.59917238  0.63179450  0.61536806    -0.10500
C931        C  0.66697558  0.67843118  0.58678831     0.05900
H932        H  0.62722867  0.67469388  0.55593497     0.07900
H933        H  0.57851123  0.64647012  0.56140085     0.11300
H934        H  0.59172513  0.61984274  0.63203684     0.11600
H935        H  0.64001352  0.64787585  0.62664017     0.07900
C936        C  0.68466718  0.69307229  0.60608818    -0.11200
C937        C  0.71251479  0.70504376  0.60271204    -0.10500
C938        C  0.72311771  0.70212148  0.58015398    -0.01400
C939        C  0.70546369  0.68802346  0.56073811    -0.11600
C940        C  0.67774344  0.67649948  0.56395376    -0.10000
H941        H  0.67693093  0.69500820  0.62385203     0.07900
H942        H  0.72569508  0.71580629  0.61796547     0.11600
H943        H  0.71311149  0.68565480  0.54308184     0.11300
H944        H  0.66467790  0.66514783  0.54883268     0.07900
C945        C  0.50182052  0.67116484  0.67395873    -0.11200
C946        C  0.52132928  0.67856594  0.69244997     0.05900
C947        C  0.53387072  0.66290156  0.69596642    -0.10000
C948        C  0.52748354  0.64063702  0.68072475    -0.11600
C949        C  0.50892025  0.63417531  0.66145129    -0.01400
C950        C  0.49583682  0.64933473  0.65851098    -0.10500
C951        C  0.53035370  0.70425641  0.70583855     0.05900
H952        H  0.54908227  0.66832326  0.71006240     0.07900
H953        H  0.53804300  0.62940669  0.68313325     0.11300
H954        H  0.48152490  0.64479796  0.64371213     0.11600
H955        H  0.49221119  0.68315412  0.67057039     0.07900
C956        C  0.55775110  0.72332620  0.70648597    -0.11200
C957        C  0.56607830  0.74954787  0.71448697    -0.10500
C958        C  0.54721630  0.75706481  0.72235209    -0.01400
C959        C  0.51999226  0.73752961  0.72342457    -0.11600
C960        C  0.51159793  0.71135743  0.71500852    -0.10000
H961        H  0.57258567  0.71844373  0.69934812     0.07900
H962        H  0.58725304  0.76422498  0.71376477     0.11600
H963        H  0.50511203  0.74285751  0.72946919     0.11300
H964        H  0.49035195  0.69690897  0.71476919     0.07900
C965        C  0.49303231  0.48900787  0.53969320    -0.11200
C966        C  0.49233599  0.49604393  0.51485241     0.05900
C967        C  0.49477387  0.52132266  0.50971996    -0.10000
C968        C  0.49728233  0.53885619  0.52893450    -0.11600
C969        C  0.49776044  0.53169429  0.55370922    -0.01400
C970        C  0.49587283  0.50670891  0.55890292    -0.10500
C971        C  0.48861050  0.47691498  0.49445248     0.05900
H972        H  0.49487050  0.52764418  0.49083757     0.07900
H973        H  0.49893881  0.55811917  0.52436510     0.11300
H974        H  0.49600649  0.50060152  0.57783223     0.11600
H975        H  0.49077560  0.46954257  0.54438137     0.07900
C976        C  0.50023651  0.46020727  0.49585780    -0.11200
C977        C  0.49583660  0.44146414  0.47723816    -0.10500
C978        C  0.48006544  0.43924758  0.45658890    -0.01400
C979        C  0.46897321  0.45633128  0.45475496    -0.11600
C980        C  0.47301507  0.47482584  0.47360386    -0.10000
H981        H  0.51286973  0.46168856  0.51129345     0.07900
H982        H  0.50504142  0.42884223  0.47888750     0.11600
H983        H  0.45673392  0.45499394  0.43902603     0.11300
H984        H  0.46343432  0.48709601  0.47205455     0.07900
C985        C  0.46553866  0.25785002  0.29559487    -0.11200
C986        C  0.44688981  0.26490416  0.30514884     0.05900
C987        C  0.41946895  0.24607730  0.30428266    -0.10000
C988        C  0.41088776  0.22015431  0.29540610    -0.11600
C989        C  0.42949373  0.21262560  0.28681282    -0.01400
C990        C  0.45685344  0.23192556  0.28615145    -0.10500
C991        C  0.45568241  0.29028444  0.31894078     0.05900
H992        H  0.40477154  0.25093277  0.31183485     0.07900
H993        H  0.38965734  0.20564802  0.29602799     0.11300
H994        H  0.47154879  0.22652480  0.27970976     0.11600
H995        H  0.48682304  0.27211650  0.29619661     0.07900
C996        C  0.47289640  0.29617021  0.33920704    -0.11200
C997        C  0.47732195  0.31711571  0.35533047    -0.10500
C998        C  0.46501820  0.33288379  0.35123570    -0.01400
C999        C  0.44906814  0.32805741  0.33013836    -0.11600
C1000       C  0.44416203  0.30666681  0.31426334    -0.10000
H1001       H  0.48166829  0.28357596  0.34337531     0.07900
H1002       H  0.48981100  0.32051761  0.37143219     0.11600
H1003       H  0.43930413  0.33987859  0.32665634     0.11300
H1004       H  0.43067231  0.30232254  0.29878660     0.07900
C1005       C  0.00464465  0.16000198  0.50805373    -0.11200
C1006       C  0.01122990  0.17849083  0.48858096     0.05900
C1007       C  0.99463923  0.18980563  0.48409086    -0.10000
C1008       C  0.97261320  0.18367283  0.49948674    -0.11600
C1009       C  0.96710458  0.16648833  0.51987032    -0.01400
C1010       C  0.98293238  0.15422511  0.52365601    -0.10500
C1011       C  0.03713420  0.18837586  0.47528362     0.05900
H1012       H  0.99925535  0.20407657  0.46915681     0.07900
H1013       H  0.96078707  0.19347436  0.49623470     0.11300
H1014       H  0.97906366  0.14083866  0.53920728     0.11600
H1015       H  0.01723733  0.15122612  0.51213322     0.07900
C1016       C  0.05445627  0.21619424  0.47296716    -0.11200
C1017       C  0.08074519  0.22602528  0.46461904    -0.10500
C1018       C  0.09016354  0.20826375  0.45800287    -0.01400
C1019       C  0.07238318  0.18042699  0.45865878    -0.11600
C1020       C  0.04611887  0.17053730  0.46749659    -0.10000
H1021       H  0.04819862  0.23042062  0.47903007     0.07900
H1022       H  0.09402839  0.24759286  0.46408713     0.11600
H1023       H  0.07921853  0.16635113  0.45366493     0.11300
H1024       H  0.03309278  0.14899192  0.46900450     0.07900
C1025       C  0.29235648  0.31354175  0.43255671    -0.11200
C1026       C  0.30501012  0.29879088  0.42546072     0.05900
C1027       C  0.28927943  0.27086208  0.42176983    -0.10000
C1028       C  0.26130879  0.25798962  0.42495677    -0.11600
C1029       C  0.24876929  0.27277609  0.43245051    -0.01400
C1030       C  0.26463564  0.30067043  0.43623252    -0.10500
C1031       C  0.33449005  0.31294502  0.42147699     0.05900
H1032       H  0.29860133  0.25912333  0.41609485     0.07900
H1033       H  0.24956414  0.23647124  0.42197540     0.11300
H1034       H  0.25555882  0.31264352  0.44190044     0.11600
H1035       H  0.30402647  0.33507325  0.43555482     0.07900
C1036       C  0.34645703  0.33585130  0.40634339    -0.11200
C1037       C  0.37423807  0.35013025  0.40316879    -0.10500
C1038       C  0.39089570  0.34209881  0.41528411    -0.01400
C1039       C  0.37894875  0.31906827  0.43040577    -0.11600
C1040       C  0.35092814  0.30449018  0.43333249    -0.10000
H1041       H  0.33423106  0.34268232  0.39688915     0.07900
H1042       H  0.38268348  0.36768586  0.39128868     0.11600
H1043       H  0.39121524  0.31233618  0.43991012     0.11300
H1044       H  0.34212357  0.28697033  0.44524870     0.07900
C1045       C  0.30833411  0.43454869  0.19832421    -0.11200
C1046       C  0.29453804  0.44918810  0.19627301     0.05900
C1047       C  0.30486306  0.47171549  0.18063487    -0.10000
C1048       C  0.32723228  0.47810242  0.16574186    -0.11600
C1049       C  0.34000176  0.46243175  0.16661603    -0.01400
C1050       C  0.33113826  0.44134183  0.18381023    -0.10500
C1051       C  0.26743359  0.43877083  0.20717597     0.05900
H1052       H  0.29446077  0.48315581  0.17856885     0.07900
H1053       H  0.33376729  0.49450074  0.15262295     0.11300
H1054       H  0.34056225  0.42887765  0.18466754     0.11600
H1055       H  0.30068100  0.41707277  0.21028017     0.07900
C1056       C  0.24762692  0.41225268  0.20200786    -0.11200
C1057       C  0.22096952  0.40317968  0.20870256    -0.10500
C1058       C  0.21353829  0.42029792  0.22103767    -0.01400
C1059       C  0.23354604  0.44644979  0.22734529    -0.11600
C1060       C  0.26027032  0.45573214  0.22018775    -0.10000
H1061       H  0.25256207  0.39891725  0.19168448     0.07900
H1062       H  0.20603158  0.38285654  0.20373187     0.11600
H1063       H  0.22837125  0.46003095  0.23689574     0.11300
H1064       H  0.27524894  0.47630552  0.22429216     0.07900
C1065       C  0.14630764  0.27794788  0.34488448    -0.11200
C1066       C  0.15290771  0.30511311  0.34661868     0.05900
C1067       C  0.16465378  0.31925323  0.36861885    -0.10000
C1068       C  0.16894143  0.30635196  0.38864092    -0.11600
C1069       C  0.16192995  0.27911295  0.38697195    -0.01400
C1070       C  0.15088054  0.26515257  0.36479282    -0.10500
C1071       C  0.14701661  0.31851703  0.32586505     0.05900
H1072       H  0.17058808  0.34038507  0.37040311     0.07900
H1073       H  0.17770882  0.31766350  0.40539928     0.11300
H1074       H  0.14515456  0.24406400  0.36298465     0.11600
H1075       H  0.13696875  0.26635711  0.32840819     0.07900
C1076       C  0.14990073  0.31281650  0.30098759    -0.11200
C1077       C  0.14512242  0.32626599  0.28167636    -0.10500
C1078       C  0.13772044  0.34587788  0.28694208    -0.01400
C1079       C  0.13414548  0.35102498  0.31169201    -0.11600
C1080       C  0.13851841  0.33738017  0.33089960    -0.10000
H1081       H  0.15661999  0.29855075  0.29642755     0.07900
H1082       H  0.14824819  0.32213779  0.26273761     0.11600
H1083       H  0.12818251  0.36588315  0.31624642     0.11300
H1084       H  0.13531268  0.34171125  0.34973112     0.07900
C1085       C  0.95238537  0.32572577  0.24073145    -0.11200
C1086       C  0.97064910  0.32585497  0.25814937     0.05900
C1087       C  0.96067005  0.31024397  0.27966313    -0.10000
C1088       C  0.93305069  0.29429915  0.28341749    -0.11600
C1089       C  0.91474467  0.29391106  0.26592066    -0.01400
C1090       C  0.92466885  0.31008799  0.24469800    -0.10500
C1091       C  0.99998898  0.34079018  0.25331443     0.05900
H1092       H  0.97427126  0.30972206  0.29324358     0.07900
H1093       H  0.92601294  0.28216252  0.30002491     0.11300
H1094       H  0.91103126  0.31019187  0.23092534     0.11600
H1095       H  0.95958409  0.33765153  0.22401740     0.07900
C1096       C  0.01012182  0.33813127  0.23038949    -0.11200
C1097       C  0.03776937  0.34988191  0.22648116    -0.10500
C1098       C  0.05592515  0.36497008  0.24524991    -0.01400
C1099       C  0.04587202  0.36854159  0.26788280    -0.11600
C1100       C  0.01812612  0.35631686  0.27197083    -0.10000
H1101       H  0.99662588  0.32610135  0.21578197     0.07900
H1102       H  0.04496619  0.34692257  0.20879793     0.11600
H1103       H  0.05942360  0.38002996  0.28266294     0.11300
H1104       H  0.01080520  0.35875966  0.28978293     0.07900
C1105       C  0.83117483  0.33305402  0.34451813    -0.11200
C1106       C  0.85044619  0.34073381  0.36324812     0.05900
C1107       C  0.86331859  0.32544074  0.36713917    -0.10000
C1108       C  0.85803398  0.30368710  0.35164913    -0.11600
C1109       C  0.84019813  0.29732987  0.33180881    -0.01400
C1110       C  0.82624801  0.31167045  0.32882637    -0.10500
C1111       C  0.85973742  0.36677899  0.37597211     0.05900
H1112       H  0.87826121  0.33103780  0.38151788     0.07900
H1113       H  0.86906732  0.29294110  0.35422897     0.11300
H1114       H  0.81227021  0.30700359  0.31371170     0.11600
H1115       H  0.82122148  0.34469351  0.34095770     0.07900
C1116       C  0.88724003  0.38547603  0.37619288    -0.11200
C1117       C  0.89616751  0.41176253  0.38411638    -0.10500
C1118       C  0.87782255  0.41978248  0.39231339    -0.01400
C1119       C  0.85043216  0.40078571  0.39348795    -0.11600
C1120       C  0.84139515  0.37446912  0.38509155    -0.10000
H1121       H  0.90173592  0.38019676  0.36889912     0.07900
H1122       H  0.91742800  0.42609554  0.38313398     0.11600
H1123       H  0.83596266  0.40664341  0.39962715     0.11300
H1124       H  0.82006765  0.36034998  0.38499492     0.07900
C1125       C  0.82082302  0.18283855  0.17992364    -0.11200
C1126       C  0.81932411  0.15793196  0.18492672     0.05900
C1127       C  0.82256878  0.15198523  0.20955844    -0.10000
C1128       C  0.82728571  0.17047366  0.22859440    -0.11600
C1129       C  0.82852528  0.19518736  0.22350234    -0.01400
C1130       C  0.82520117  0.20114016  0.19898496    -0.10500
C1131       C  0.81478159  0.13845505  0.16452392     0.05900
H1132       H  0.82104370  0.13283994  0.21427306     0.07900
H1133       H  0.82946248  0.16520595  0.24734945     0.11300
H1134       H  0.82606390  0.22005442  0.19446491     0.11600
H1135       H  0.81897197  0.18842748  0.16121568     0.07900
C1136       C  0.79863897  0.13616546  0.14401814    -0.11200
C1137       C  0.79500660  0.11827927  0.12465997    -0.10500
C1138       C  0.80704058  0.10196297  0.12560723    -0.01400
C1139       C  0.82287569  0.10399987  0.14615910    -0.11600
C1140       C  0.82689498  0.12214913  0.16524092    -0.10000
H1141       H  0.78857000  0.14800129  0.14297668     0.07900
H1142       H  0.78258970  0.11701514  0.10910117     0.11600
H1143       H  0.83267612  0.09189032  0.14728582     0.11300
H1144       H  0.83993876  0.12370452  0.18032584     0.07900
C1145       C  0.74766052  0.90897119  0.97670517    -0.11200
C1146       C  0.77481152  0.92852642  0.97471277     0.05900
C1147       C  0.79287978  0.92133585  0.96391737    -0.10000
C1148       C  0.78395751  0.89487050  0.95574487    -0.11600
C1149       C  0.75696241  0.87510581  0.95883645    -0.01400
C1150       C  0.73889968  0.88257082  0.96904738    -0.10500
C1151       C  0.78425570  0.95521475  0.98652809     0.05900
H1152       H  0.81397278  0.93607168  0.96229071     0.07900
H1153       H  0.79828968  0.88960989  0.94802999     0.11300
H1154       H  0.71794347  0.86778069  0.97159788     0.11600
H1155       H  0.73339300  0.91380071  0.98530999     0.07900
C1156       C  0.77029818  0.96958479  0.98324979    -0.11200
C1157       C  0.77612602  0.99207303  0.99802325    -0.10500
C1158       C  0.79558596  0.00010892  0.01666035    -0.01400
C1159       C  0.81051713  0.98667000  0.01892865    -0.11600
C1160       C  0.80509567  0.96461756  0.00387083    -0.10000
H1161       H  0.75414098  0.96272128  0.96995042     0.07900
H1162       H  0.76425830  0.00201754  0.99599763     0.11600
H1163       H  0.82570138  0.99254925  0.03312426     0.11300
H1164       H  0.81597634  0.95380918  0.00694997     0.07900
C1165       C  0.39040796  0.88720949  0.13866021    -0.11200
C1166       C  0.37130865  0.85974386  0.13798148     0.05900
C1167       C  0.37859126  0.84142579  0.12790577    -0.10000
C1168       C  0.40481387  0.85041595  0.11935116    -0.11600
C1169       C  0.42418991  0.87773546  0.12130080    -0.01400
C1170       C  0.41658909  0.89607338  0.13057461    -0.10500
C1171       C  0.34496861  0.85038146  0.15020840     0.05900
H1172       H  0.36416949  0.82012783  0.12721541     0.07900
H1173       H  0.41025542  0.83589751  0.11236505     0.11300
H1174       H  0.43113722  0.91726930  0.13220676     0.11600
H1175       H  0.38545392  0.90169909  0.14663992     0.07900
C1176       C  0.33595345  0.82989868  0.16806573    -0.11200
C1177       C  0.31391786  0.82446982  0.18310192    -0.10500
C1178       C  0.30019009  0.83905887  0.18024171    -0.01400
C1179       C  0.30806280  0.85827835  0.16127950    -0.11600
C1180       C  0.33044138  0.86407275  0.14653564    -0.10000
H1181       H  0.34694081  0.81924673  0.17143682     0.07900
H1182       H  0.30816242  0.80948205  0.19756662     0.11600
H1183       H  0.29790128  0.86989360  0.15881202     0.11300
H1184       H  0.33701327  0.87994128  0.13284362     0.07900
C1185       C  0.48714212  0.95143304  0.01000066    -0.11200
C1186       C  0.49005147  0.97711405  0.01398894     0.05900
C1187       C  0.49820922  0.98899418  0.03753706    -0.10000
C1188       C  0.50257102  0.97519858  0.05676994    -0.11600
C1189       C  0.49909673  0.94932772  0.05279144    -0.01400
C1190       C  0.49173706  0.93780443  0.02910399    -0.10500
C1191       C  0.48400658  0.99106465  0.99380507     0.05900
H1192       H  0.50121082  0.00898008  0.04117171     0.07900
H1193       H  0.50829988  0.98461514  0.07479419     0.11300
H1194       H  0.48882111  0.91784768  0.02542158     0.11600
H1195       H  0.48052529  0.94142496  0.99231930     0.07900
C1196       C  0.48954163  0.98810338  0.96890431    -0.11200
C1197       C  0.48355258  0.00095342  0.94997494    -0.10500
C1198       C  0.47243547  0.01747803  0.95557529    -0.01400
C1199       C  0.46687322  0.02051365  0.98033051    -0.11600
C1200       C  0.47229685  0.00720746  0.99922117    -0.10000
H1201       H  0.49901956  0.97629426  0.96401503     0.07900
H1202       H  0.48850622  0.99875391  0.93104383     0.11600
H1203       H  0.45827175  0.03317745  0.98506939     0.11300
H1204       H  0.46716017  0.00948116  0.01804349     0.07900
C1205       C  0.62010488  0.93522748  0.07730471    -0.11200
C1206       C  0.63747094  0.95342732  0.09507574     0.05900
C1207       C  0.62660821  0.95970531  0.11569451    -0.10000
C1208       C  0.59892228  0.94894594  0.11795274    -0.11600
C1209       C  0.58149859  0.93138084  0.09983472    -0.01400
C1210       C  0.59227618  0.92405658  0.07977984    -0.10500
C1211       C  0.66676545  0.96828950  0.09081120     0.05900
H1212       H  0.63959696  0.97389942  0.12945720     0.07900
H1213       H  0.59116182  0.95474223  0.13377911     0.11300
H1214       H  0.57930375  0.91047147  0.06566285     0.11600
H1215       H  0.62814227  0.93012962  0.06123457     0.07900
C1216       C  0.68488722  0.97081053  0.10950803    -0.11200
C1217       C  0.71258519  0.98706047  0.10581684    -0.10500
C1218       C  0.72238703  0.00148664  0.08364427    -0.01400
C1219       C  0.70418040  0.99863633  0.06495663    -0.11600
C1220       C  0.67670730  0.98205108  0.06842874    -0.10000
H1221       H  0.67756860  0.96042439  0.12697525     0.07900
H1222       H  0.72624132  0.98896936  0.12050107     0.11600
H1223       H  0.71119148  0.00940258  0.04762078     0.11300
H1224       H  0.66311178  0.98073886  0.05391338     0.07900
C1225       C  0.82010871  0.80140794  0.01106194    -0.11200
C1226       C  0.80896083  0.78004777  0.02805841     0.05900
C1227       C  0.78090126  0.76541002  0.03086835    -0.10000
C1228       C  0.76426645  0.77114830  0.01606166    -0.11600
C1229       C  0.77543621  0.79118205  0.99778159    -0.01400
C1230       C  0.80350226  0.80671021  0.99588876    -0.10500
C1231       C  0.82639121  0.77095545  0.04017418     0.05900
H1232       H  0.77183597  0.74885348  0.04389116     0.07900
H1233       H  0.74271618  0.75882268  0.01780714     0.11300
H1234       H  0.81261918  0.82235445  0.98198375     0.11600
H1235       H  0.84162102  0.81285777  0.00839138     0.07900
C1236       C  0.82033360  0.74404926  0.03764504    -0.11200
C1237       C  0.83827869  0.73580179  0.04584236    -0.10500
C1238       C  0.86259253  0.75418081  0.05711840    -0.01400
C1239       C  0.86812773  0.78084227  0.06077441    -0.11600
C1240       C  0.85032361  0.78925536  0.05209002    -0.10000
H1241       H  0.80221308  0.72960755  0.02826141     0.07900
H1242       H  0.83334008  0.71507640  0.04289315     0.11600
H1243       H  0.88668651  0.79542167  0.06944694     0.11300
H1244       H  0.85543105  0.81012134  0.05423811     0.07900
C1245       C  0.99677770  0.78027043  0.98639670    -0.11200
C1246       C  0.01228928  0.80811846  0.99076099     0.05900
C1247       C  0.00487115  0.81964873  0.01010892    -0.10000
C1248       C  0.98313973  0.80359233  0.02545084    -0.11600
C1249       C  0.96802482  0.77566507  0.02158461    -0.01400
C1250       C  0.97461330  0.76419962  0.00153355    -0.10500
C1251       C  0.03765216  0.82493055  0.97702747     0.05900
H1252       H  0.01670990  0.84095245  0.01412977     0.07900
H1253       H  0.97860563  0.81296739  0.04082952     0.11300
H1254       H  0.96347277  0.74268937  0.99831200     0.11600
H1255       H  0.00217561  0.77090692  0.97162529     0.07900
C1256       C  0.05711610  0.81678212  0.97539919    -0.11200
C1257       C  0.08281402  0.83445730  0.96642711    -0.10500
C1258       C  0.08945354  0.86048316  0.95846174    -0.01400
C1259       C  0.06950471  0.86804712  0.95858641    -0.11600
C1260       C  0.04388952  0.85051788  0.96805342    -0.10000
H1261       H  0.05292537  0.79728396  0.98237110     0.07900
H1262       H  0.09776651  0.82802930  0.96635650     0.11600
H1263       H  0.07410320  0.88798224  0.95256650     0.11300
H1264       H  0.02917010  0.85721573  0.96906988     0.07900
C1265       C  0.14006485  0.48817379  0.17235167    -0.11200
C1266       C  0.12493173  0.47813946  0.15067888     0.05900
C1267       C  0.11543948  0.45105979  0.14413439    -0.10000
C1268       C  0.11987247  0.43399725  0.15966951    -0.11600
C1269       C  0.13347244  0.44368263  0.18217643    -0.01400
C1270       C  0.14415362  0.47109844  0.18799485    -0.10500
C1271       C  0.11613432  0.49498794  0.13710210     0.05900
H1272       H  0.10377523  0.44290226  0.12745340     0.07900
H1273       H  0.11148418  0.41298042  0.15470985     0.11300
H1274       H  0.15487970  0.47918705  0.20515136     0.11600
H1275       H  0.14734014  0.50885296  0.17798067     0.07900
C1276       C  0.08871436  0.48484037  0.13245973    -0.11200
C1277       C  0.07932983  0.50188449  0.12419639    -0.10500
C1278       C  0.09723390  0.52924594  0.11987019    -0.01400
C1279       C  0.12485483  0.53909188  0.12283898    -0.11600
C1280       C  0.13422293  0.52214108  0.13170296    -0.10000
H1281       H  0.07432124  0.46410634  0.13673393     0.07900
H1282       H  0.05793662  0.49388311  0.12195603     0.11600
H1283       H  0.13897228  0.56018930  0.11975729     0.11300
H1284       H  0.15546254  0.53042268  0.13517985     0.07900
C1285       C  0.01089146  0.64837708  0.11713704    -0.11200
C1286       C  0.01721513  0.66579767  0.09686709     0.05900
C1287       C  0.03548580  0.66646404  0.07894655    -0.10000
C1288       C  0.04664925  0.64946777  0.08093796    -0.11600
C1289       C  0.03932726  0.63115591  0.10065361    -0.01400
C1290       C  0.02168298  0.63113756  0.11892617    -0.10500
C1291       C  0.00235458  0.68072998  0.09307135     0.05900
H1292       H  0.04069951  0.67978940  0.06314242     0.07900
H1293       H  0.06035858  0.65009629  0.06671712     0.11300
H1294       H  0.01588036  0.61747469  0.13452083     0.11600
H1295       H  0.99664559  0.64723106  0.13103183     0.07900
C1296       C  0.98943523  0.67818307  0.07045531    -0.11200
C1297       C  0.97247391  0.68904525  0.06743654    -0.10500
C1298       C  0.96828389  0.70310842  0.08682364    -0.01400
C1299       C  0.98217619  0.70686172  0.10914508    -0.11600
C1300       C  0.99883950  0.69542698  0.11235598    -0.10000
H1301       H  0.99153262  0.66673024  0.05540057     0.07900
H1302       H  0.96226278  0.68607607  0.04991568     0.11600
H1303       H  0.97936459  0.71769552  0.12432700     0.11300
H1304       H  0.00865420  0.69767178  0.12999548     0.07900
C1305       C  0.11829259  0.66089105  0.19422124    -0.11200
C1306       C  0.14623623  0.67530224  0.19067539     0.05900
C1307       C  0.15817546  0.66562923  0.17374655    -0.10000
C1308       C  0.14228421  0.64318032  0.15912685    -0.11600
C1309       C  0.11423203  0.62967539  0.16162255    -0.01400
C1310       C  0.10240902  0.63797033  0.17999564    -0.10500
C1311       C  0.16250577  0.70232183  0.20162315     0.05900
H1312       H  0.17966345  0.67659116  0.17055811     0.07900
H1313       H  0.15179770  0.63712757  0.14503649     0.11300
H1314       H  0.08077895  0.62799097  0.18205683     0.11600
H1315       H  0.10872635  0.66810682  0.20716080     0.07900
C1316       C  0.15551584  0.72229122  0.19702808    -0.11200
C1317       C  0.17265082  0.74891998  0.20396933    -0.10500
C1318       C  0.19692729  0.75603109  0.21607104    -0.01400
C1319       C  0.20343978  0.73585112  0.22158230    -0.11600
C1320       C  0.18650209  0.70921915  0.21412829    -0.10000
H1321       H  0.13730110  0.71748729  0.18704628     0.07900
H1322       H  0.16707121  0.76402939  0.19957287     0.11600
H1323       H  0.22206619  0.74082756  0.23086176     0.11300
H1324       H  0.19231030  0.69410806  0.21767145     0.07900
C1325       C  0.52964112  0.85181352  0.19619952    -0.11200
C1326       C  0.51659955  0.82382151  0.19225710     0.05900
C1327       C  0.49647955  0.81249780  0.17422263    -0.10000
C1328       C  0.49093110  0.82902800  0.15919631    -0.11600
C1329       C  0.50507921  0.85712261  0.16215746    -0.01400
C1330       C  0.52374972  0.86834564  0.18140022    -0.10500
C1331       C  0.52627169  0.80690164  0.20437527     0.05900
H1332       H  0.48632342  0.79106231  0.17063584     0.07900
H1333       H  0.47638623  0.81990497  0.14447162     0.11300
H1334       H  0.53502988  0.88995130  0.18390974     0.11600
H1335       H  0.54519230  0.86099277  0.21007181     0.07900
C1336       C  0.55381068  0.81534577  0.20412202    -0.11200
C1337       C  0.56306106  0.79814733  0.21215975    -0.10500
C1338       C  0.54506226  0.77227267  0.22097688    -0.01400
C1339       C  0.51761872  0.76418992  0.22240784    -0.11600
C1340       C  0.50825366  0.78129468  0.21388224    -0.10000
H1341       H  0.56808232  0.83476144  0.19654124     0.07900
H1342       H  0.58434506  0.80487085  0.21089794     0.11600
H1343       H  0.50336410  0.74426391  0.22896909     0.11300
H1344       H  0.48689089  0.77431903  0.21418830     0.07900
C1345       C  0.44657234  0.59220111  0.13215338    -0.11200
C1346       C  0.47297261  0.60046703  0.13977694     0.05900
C1347       C  0.48252098  0.58202857  0.13865438    -0.10000
C1348       C  0.46564013  0.55545491  0.13137664    -0.11600
C1349       C  0.43899565  0.54687851  0.12456166    -0.01400
C1350       C  0.42981601  0.56566098  0.12422334    -0.10500
C1351       C  0.48959647  0.62686574  0.15191408     0.05900
H1352       H  0.50265610  0.58778952  0.14474270     0.07900
H1353       H  0.47323311  0.54139254  0.13162969     0.11300
H1354       H  0.40931207  0.55947188  0.11906501     0.11600
H1355       H  0.43876116  0.60607160  0.13298374     0.07900
C1356       C  0.51679558  0.64306187  0.14553360    -0.11200
C1357       C  0.53383130  0.66497062  0.16042899    -0.10500
C1358       C  0.52399577  0.67060812  0.18219812    -0.01400
C1359       C  0.49641333  0.65547144  0.18760287    -0.11600
C1360       C  0.47935598  0.63393671  0.17252228    -0.10000
H1361       H  0.52508787  0.63798080  0.12965317     0.07900
H1362       H  0.55495908  0.67636141  0.15579589     0.11600
H1363       H  0.48821117  0.65952446  0.20415697     0.11300
H1364       H  0.45854136  0.62165839  0.17795322     0.07900
C1365       C  0.81591082  0.54718723  0.30583415    -0.11200
C1366       C  0.80760877  0.51958488  0.30650267     0.05900
C1367       C  0.78191795  0.50114149  0.29763008    -0.10000
C1368       C  0.76454888  0.51019506  0.28914691    -0.11600
C1369       C  0.77239305  0.53771605  0.29004416    -0.01400
C1370       C  0.79843858  0.55612502  0.29792130    -0.10500
C1371       C  0.82457939  0.51043063  0.31939839     0.05900
H1372       H  0.77504964  0.47974636  0.29797870     0.07900
H1373       H  0.74452741  0.49560435  0.28319647     0.11300
H1374       H  0.80503260  0.57746186  0.29866971     0.11600
H1375       H  0.83543086  0.56182807  0.31283770     0.07900
C1376       C  0.85245126  0.52325346  0.31518362    -0.11200
C1377       C  0.86912632  0.51847395  0.33085364    -0.10500
C1378       C  0.85825517  0.50121654  0.35127221    -0.01400
C1379       C  0.83025535  0.48722333  0.35458182    -0.11600
C1380       C  0.81357822  0.49159702  0.33867005    -0.10000
H1381       H  0.86140587  0.53781546  0.30040159     0.07900
H1382       H  0.89063870  0.52951241  0.32788928     0.11600
H1383       H  0.82132829  0.47363990  0.37006988     0.11300
H1384       H  0.79221924  0.48160307  0.34248755     0.07900
C1385       C  0.84521075  0.68372785  0.16862657    -0.11200
C1386       C  0.82689202  0.65611894  0.16610234     0.05900
C1387       C  0.82778168  0.64288718  0.14431324    -0.10000
C1388       C  0.84629011  0.65699188  0.12546067    -0.11600
C1389       C  0.86455535  0.68454947  0.12815775    -0.01400
C1390       C  0.86388679  0.69766619  0.15000487    -0.10500
C1391       C  0.80703896  0.64132995  0.18612928     0.05900
H1392       H  0.81434536  0.62152300  0.14186067     0.07900
H1393       H  0.84636770  0.64635477  0.10885982     0.11300
H1394       H  0.87752908  0.71898919  0.15257477     0.11600
H1395       H  0.84485931  0.69478725  0.18479150     0.07900
C1396       C  0.81363732  0.64818667  0.21119335    -0.11200
C1397       C  0.79518051  0.63399403  0.22997937    -0.10500
C1398       C  0.76988314  0.61232440  0.22416246    -0.01400
C1399       C  0.76305974  0.60567556  0.19920239    -0.11600
C1400       C  0.78131923  0.62013026  0.18039874    -0.10000
H1401       H  0.83335068  0.66408113  0.21642970     0.07900
H1402       H  0.80104429  0.63938919  0.24907566     0.11600
H1403       H  0.74357929  0.58915015  0.19418220     0.11300
H1404       H  0.77521753  0.61467736  0.16137661     0.07900
C1405       C  0.64282699  0.60567127  0.23981732    -0.11200
C1406       C  0.64169456  0.62310847  0.25772194     0.05900
C1407       C  0.65501285  0.62636288  0.28029346    -0.10000
C1408       C  0.66965951  0.61309319  0.28467650    -0.11600
C1409       C  0.67111105  0.59591316  0.26673378    -0.01400
C1410       C  0.65717621  0.59198128  0.24438552    -0.10500
C1411       C  0.62748585  0.63862454  0.25282856     0.05900
H1412       H  0.65476362  0.63985041  0.29433814     0.07900
H1413       H  0.68015587  0.61654798  0.30208049     0.11300
H1414       H  0.65804665  0.57898612  0.23016626     0.11600
H1415       H  0.63264245  0.60267766  0.22229187     0.07900
C1416       C  0.63136203  0.65250311  0.23039563    -0.11200
C1417       C  0.61966253  0.66879419  0.22662281    -0.10500
C1418       C  0.60343047  0.67120369  0.24501633    -0.01400
C1419       C  0.59891471  0.65672598  0.26714005    -0.11600
C1420       C  0.61101118  0.64081337  0.27109404    -0.10000
H1421       H  0.64412677  0.65141951  0.21607722     0.07900
H1422       H  0.62343707  0.67964452  0.20932029     0.11600
H1423       H  0.58658712  0.65825179  0.28165140     0.11300
H1424       H  0.60755662  0.63024376  0.28851380     0.07900
C1425       C  0.64493978  0.50945541  0.36803874    -0.11200
C1426       C  0.62977599  0.48176208  0.36290985     0.05900
C1427       C  0.63748487  0.47101568  0.34310931    -0.10000
C1428       C  0.65830192  0.48806008  0.32728680    -0.11600
C1429       C  0.67201555  0.51602632  0.33125083    -0.01400
C1430       C  0.66607585  0.52645709  0.35244161    -0.10500
C1431       C  0.60330038  0.46527014  0.37484653     0.05900
H1432       H  0.62604856  0.44979335  0.33869986     0.07900
H1433       H  0.66281633  0.47949619  0.31122910     0.11300
H1434       H  0.67645459  0.54790543  0.35596363     0.11600
H1435       H  0.63938792  0.51815588  0.38329928     0.07900
C1436       C  0.59484378  0.43897522  0.38334496    -0.11200
C1437       C  0.56825811  0.42250532  0.39126529    -0.10500
C1438       C  0.54974938  0.43194364  0.39008846    -0.01400
C1439       C  0.55853786  0.45845152  0.38227401    -0.11600
C1440       C  0.58501544  0.47496251  0.37493187    -0.10000
H1441       H  0.60860507  0.43104587  0.38327452     0.07900
H1442       H  0.56187199  0.40207574  0.39716308     0.11600
H1443       H  0.54470089  0.46626167  0.38129793     0.11300
H1444       H  0.59084896  0.49494641  0.36805413     0.07900
C1445       C  0.11538914  0.43492389  0.70219264    -0.11200
C1446       C  0.14349737  0.44968440  0.69962357     0.05900
C1447       C  0.15464261  0.47008771  0.68166517    -0.10000
C1448       C  0.13811666  0.47437710  0.66553236    -0.11600
C1449       C  0.11009918  0.45872822  0.66724152    -0.01400
C1450       C  0.09880363  0.43959298  0.68627764    -0.10500
C1451       C  0.16114929  0.44162821  0.71292645     0.05900
H1452       H  0.17614104  0.48156365  0.67901338     0.07900
H1453       H  0.14730311  0.48935371  0.65105932     0.11300
H1454       H  0.07725167  0.42720168  0.68789350     0.11600
H1455       H  0.10624812  0.41910703  0.71593458     0.07900
C1456       C  0.18639705  0.46102714  0.72200537    -0.11200
C1457       C  0.20489866  0.45337759  0.73030912    -0.10500
C1458       C  0.19858440  0.42629698  0.72920967    -0.01400
C1459       C  0.17283284  0.40683090  0.72149282    -0.11600
C1460       C  0.15427925  0.41437674  0.71360886    -0.10000
H1461       H  0.19214397  0.48217267  0.72182613     0.07900
H1462       H  0.22460270  0.46874552  0.73625550     0.11600
H1463       H  0.16734312  0.38575625  0.72073405     0.11300
H1464       H  0.13514510  0.39897724  0.70654193     0.07900
C1465       C  0.38918370  0.48994595  0.63922764    -0.11200
C1466       C  0.37197115  0.50053039  0.64367571     0.05900
C1467       C  0.38051829  0.52742900  0.63709062    -0.10000
C1468       C  0.40621384  0.54366296  0.62706016    -0.11600
C1469       C  0.42394369  0.53342149  0.62412747    -0.01400
C1470       C  0.41498886  0.50629302  0.62983368    -0.10500
C1471       C  0.34670810  0.48432957  0.65777616     0.05900
H1472       H  0.36760204  0.53604462  0.64037748     0.07900
H1473       H  0.41275461  0.56458430  0.62294115     0.11300
H1474       H  0.42829035  0.49793615  0.62769114     0.11600
H1475       H  0.38323559  0.46939615  0.64437119     0.07900
C1476       C  0.32912996  0.45729763  0.65155008    -0.11200
C1477       C  0.30767076  0.44088176  0.66722021    -0.10500
C1478       C  0.30374609  0.45108364  0.68963210    -0.01400
C1479       C  0.32065096  0.47843276  0.69526249    -0.11600
C1480       C  0.34176382  0.49491232  0.67941817    -0.10000
H1481       H  0.33253157  0.44868114  0.63494076     0.07900
H1482       H  0.29501335  0.41989588  0.66241736     0.11600
H1483       H  0.31810076  0.48690253  0.71237015     0.11300
H1484       H  0.35517741  0.51557560  0.68480807     0.07900
C1485       C  0.41967597  0.15170388  0.79749771    -0.11200
C1486       C  0.44703165  0.16098975  0.80167253     0.05900
C1487       C  0.46581996  0.18752488  0.79485524    -0.10000
C1488       C  0.45722707  0.20482451  0.78522890    -0.11600
C1489       C  0.42972335  0.19591779  0.78275474    -0.01400
C1490       C  0.41111909  0.16904838  0.78832317    -0.10500
C1491       C  0.45520011  0.14402080  0.81594439     0.05900
H1492       H  0.48705002  0.19514071  0.79782082     0.07900
H1493       H  0.47189534  0.22553432  0.78121121     0.11300
H1494       H  0.38978628  0.16174364  0.78651377     0.11600
H1495       H  0.40471856  0.13151260  0.80282953     0.07900
C1496       C  0.47243778  0.15506408  0.83625866    -0.11200
C1497       C  0.47650039  0.13844975  0.85253975    -0.10500
C1498       C  0.46368985  0.11049352  0.84870044    -0.01400
C1499       C  0.44770518  0.09956882  0.82760455    -0.11600
C1500       C  0.44334288  0.11618415  0.81144959    -0.10000
H1501       H  0.48155939  0.17635025  0.84038312     0.07900
H1502       H  0.48904359  0.14741135  0.86861700     0.11600
H1503       H  0.43755549  0.07807444  0.82426641     0.11300
H1504       H  0.43001973  0.10717656  0.79586643     0.07900
C1505       C  0.34473350  0.31612498  0.77967500    -0.11200
C1506       C  0.35119735  0.33376773  0.75955509     0.05900
C1507       C  0.36964790  0.33463499  0.74171953    -0.10000
C1508       C  0.38109228  0.31786282  0.74380764    -0.11600
C1509       C  0.37387717  0.29957422  0.76353871    -0.01400
C1510       C  0.35581320  0.29915149  0.78156780    -0.10500
C1511       C  0.33696336  0.34945028  0.75632067     0.05900
H1512       H  0.37500805  0.34813265  0.72603224     0.07900
H1513       H  0.39501668  0.31872464  0.72972204     0.11300
H1514       H  0.34994913  0.28541597  0.79711509     0.11600
H1515       H  0.33033929  0.31476477  0.79349479     0.07900
C1516       C  0.32488435  0.34867373  0.73359264    -0.11200
C1517       C  0.30872831  0.36057677  0.73109846    -0.10500
C1518       C  0.30456246  0.37392750  0.75115864    -0.01400
C1519       C  0.31761911  0.37585093  0.77361814    -0.11600
C1520       C  0.33345308  0.36343357  0.77626664    -0.10000
H1521       H  0.32700243  0.33783766  0.71800168     0.07900
H1522       H  0.29908118  0.35894077  0.71348840     0.11600
H1523       H  0.31474789  0.38601639  0.78935741     0.11300
H1524       H  0.34264041  0.36438297  0.79398208     0.07900
C1525       C  0.45615470  0.32126490  0.86315517    -0.11200
C1526       C  0.48354053  0.33792325  0.85765580     0.05900
C1527       C  0.49443952  0.33218302  0.83671512    -0.10000
C1528       C  0.47794364  0.31154088  0.82053039    -0.11600
C1529       C  0.45023406  0.29589048  0.82516667    -0.01400
C1530       C  0.43969118  0.30020698  0.84716037    -0.10500
C1531       C  0.49967282  0.36363165  0.87108660     0.05900
H1532       H  0.51541891  0.34488781  0.83191836     0.07900
H1533       H  0.48667292  0.30854871  0.80382212     0.11300
H1534       H  0.41841217  0.28843095  0.85121314     0.11600
H1535       H  0.44732995  0.32533937  0.87920818     0.07900
C1536       C  0.48997820  0.38189945  0.87290640    -0.11200
C1537       C  0.50653812  0.40810827  0.88126825    -0.10500
C1538       C  0.53303281  0.41649698  0.88851243    -0.01400
C1539       C  0.54233966  0.39782042  0.88818581    -0.11600
C1540       C  0.52589497  0.37163873  0.87917591    -0.10000
H1541       H  0.46998863  0.37637153  0.86647205     0.07900
H1542       H  0.49885688  0.42208275  0.88146365     0.11600
H1543       H  0.56275532  0.40388095  0.89362299     0.11300
H1544       H  0.53382410  0.35791581  0.87782323     0.07900
C1545       C  0.48262198  0.88882422  0.64432006    -0.11200
C1546       C  0.47733392  0.86242819  0.63976434     0.05900
C1547       C  0.45410674  0.84485757  0.62653004    -0.10000
C1548       C  0.43612052  0.85339052  0.61867686    -0.11600
C1549       C  0.44072599  0.87936969  0.62447746    -0.01400
C1550       C  0.46445696  0.89715084  0.63695294    -0.10500
C1551       C  0.49444278  0.85270776  0.65145875     0.05900
H1552       H  0.44961739  0.82440811  0.62283293     0.07900
H1553       H  0.41804422  0.83928146  0.60900406     0.11300
H1554       H  0.46869048  0.91734200  0.64154372     0.11600
H1555       H  0.50021937  0.90266776  0.65473882     0.07900
C1556       C  0.52256857  0.86741256  0.64926014    -0.11200
C1557       C  0.53877133  0.86096510  0.66396278    -0.10500
C1558       C  0.52713221  0.84023546  0.68155602    -0.01400
C1559       C  0.49901475  0.82470944  0.68282378    -0.11600
C1560       C  0.48285422  0.83068370  0.66768995    -0.10000
H1561       H  0.53193994  0.88451023  0.63691454     0.07900
H1562       H  0.56040704  0.87339191  0.66278740     0.11600
H1563       H  0.48956357  0.80865227  0.69624119     0.11300
H1564       H  0.46123175  0.81919154  0.66990327     0.07900
C1565       C  0.24905018  0.81138796  0.71047647    -0.11200
C1566       C  0.26620511  0.80085313  0.70553062     0.05900
C1567       C  0.25741567  0.77361768  0.71082928    -0.10000
C1568       C  0.23145693  0.75696297  0.71998417    -0.11600
C1569       C  0.21381808  0.76721098  0.72327766    -0.01400
C1570       C  0.22299882  0.79465101  0.71901364    -0.10500
C1571       C  0.29164038  0.81752155  0.69202236     0.05900
H1572       H  0.27032022  0.76507892  0.70708705     0.07900
H1573       H  0.22462951  0.73578079  0.72297792     0.11300
H1574       H  0.20964819  0.80291721  0.72145855     0.11600
H1575       H  0.25522365  0.83221322  0.70626870     0.07900
C1576       C  0.29680589  0.80778923  0.66996409    -0.11200
C1577       C  0.31814584  0.82485522  0.65469276    -0.10500
C1578       C  0.33492139  0.85194232  0.66127291    -0.01400
C1579       C  0.33076764  0.86125604  0.68407775    -0.11600
C1580       C  0.30913626  0.84421945  0.69923858    -0.10000
H1581       H  0.28341347  0.78741519  0.66383094     0.07900
H1582       H  0.32088547  0.81707377  0.63724015     0.11600
H1583       H  0.34336051  0.88202025  0.68958572     0.11300
H1584       H  0.30550457  0.85212584  0.71621074     0.07900
C1585       C  0.21881696  0.14986344  0.54153774    -0.11200
C1586       C  0.19197821  0.14366524  0.54429944     0.05900
C1587       C  0.17341386  0.11860584  0.55451441    -0.10000
C1588       C  0.18137650  0.09970282  0.56082850    -0.11600
C1589       C  0.20787089  0.10536734  0.55645525    -0.01400
C1590       C  0.22660471  0.13085034  0.54732925    -0.10500
C1591       C  0.18304163  0.16155117  0.53280053     0.05900
H1592       H  0.15257326  0.11333438  0.55681211     0.07900
H1593       H  0.16660520  0.08026594  0.56800176     0.11300
H1594       H  0.24726490  0.13588842  0.54411886     0.11600
H1595       H  0.23348349  0.16882490  0.53343867     0.07900
C1596       C  0.19817124  0.18975917  0.53519896    -0.11200
C1597       C  0.19323182  0.20658595  0.51973707    -0.10500
C1598       C  0.17347859  0.19535756  0.50137178    -0.01400
C1599       C  0.15717987  0.16726581  0.50024297    -0.11600
C1600       C  0.16172944  0.15054464  0.51593537    -0.10000
H1601       H  0.21468536  0.19873420  0.54814156     0.07900
H1602       H  0.20607519  0.22818911  0.52089891     0.11600
H1603       H  0.14170309  0.15814776  0.48629459     0.11300
H1604       H  0.14991924  0.12895616  0.51348972     0.07900
C1605       C  0.26561386  0.96655846  0.60414377    -0.11200
C1606       C  0.28370534  0.96581312  0.58681023     0.05900
C1607       C  0.28987050  0.98171592  0.56541591    -0.10000
C1608       C  0.27898975  0.99869819  0.56180751    -0.11600
C1609       C  0.26133879  0.99993158  0.57932454    -0.01400
C1610       C  0.25430806  0.98324925  0.60030635    -0.10500
C1611       C  0.29808976  0.95053506  0.59181527     0.05900
H1612       H  0.30397372  0.98181037  0.55190778     0.07900
H1613       H  0.28467020  0.01113857  0.54535295     0.11300
H1614       H  0.24068354  0.98366809  0.61407170     0.11600
H1615       H  0.26048852  0.95445555  0.62078800     0.07900
C1616       C  0.31106664  0.95371043  0.61455184    -0.11200
C1617       C  0.32797373  0.94277904  0.61818335    -0.10500
C1618       C  0.33199554  0.92802002  0.59932029    -0.01400
C1619       C  0.31780192  0.92346963  0.57706311    -0.11600
C1620       C  0.30122218  0.93487809  0.57325127    -0.10000
H1621       H  0.30918045  0.96578894  0.62911805     0.07900
H1622       H  0.33838018  0.94637280  0.63566467     0.11600
H1623       H  0.32036633  0.91205227  0.56227503     0.11300
H1624       H  0.29128438  0.93197696  0.55558974     0.07900
C1625       C  0.14022701  0.96199730  0.50569054    -0.11200
C1626       C  0.15131345  0.95616427  0.48489665     0.05900
C1627       C  0.17871101  0.97275472  0.47960172    -0.10000
C1628       C  0.19490146  0.99422228  0.49528774    -0.11600
C1629       C  0.18411878  0.99915737  0.51685371    -0.01400
C1630       C  0.15649761  0.98311174  0.52163183    -0.10500
C1631       C  0.13517829  0.93073777  0.47104896     0.05900
H1632       H  0.18773455  0.96855650  0.46373862     0.07900
H1633       H  0.21611984  0.00613914  0.49117346     0.11300
H1634       H  0.14760236  0.98641031  0.53809350     0.11600
H1635       H  0.11925880  0.94926212  0.51038441     0.07900
C1636       C  0.14475293  0.91239803  0.46879297    -0.11200
C1637       C  0.12806180  0.88636980  0.46010456    -0.10500
C1638       C  0.10157691  0.87823555  0.45303091    -0.01400
C1639       C  0.09253544  0.89712100  0.45344053    -0.11600
C1640       C  0.10913481  0.92314008  0.46272164    -0.10000
H1641       H  0.16464925  0.91765991  0.47522680     0.07900
H1642       H  0.13557850  0.87223676  0.45975264     0.11600
H1643       H  0.07219437  0.89129721  0.44804034     0.11300
H1644       H  0.10137728  0.93702025  0.46421137     0.07900
C1645       C  0.29012595  0.11707948  0.66359860    -0.11200
C1646       C  0.31133267  0.14267737  0.65717676     0.05900
C1647       C  0.31762930  0.14844589  0.63185832    -0.10000
C1648       C  0.30296894  0.12929157  0.61357680    -0.11600
C1649       C  0.28146647  0.10397203  0.62014583    -0.01400
C1650       C  0.27534103  0.09812344  0.64536044    -0.10500
C1651       C  0.32680348  0.16293593  0.67690749     0.05900
H1652       H  0.33356983  0.16799856  0.62606283     0.07900
H1653       H  0.30801351  0.13453331  0.59430864     0.11300
H1654       H  0.25898673  0.07874954  0.65107380     0.11600
H1655       H  0.28501811  0.11151638  0.68278687     0.07900
C1656       C  0.31415636  0.16432545  0.69892578    -0.11200
C1657       C  0.32889129  0.18221294  0.71798896    -0.10500
C1658       C  0.35662810  0.19950872  0.71540532    -0.01400
C1659       C  0.36916891  0.19869819  0.69318548    -0.11600
C1660       C  0.35453103  0.18061129  0.67426308    -0.10000
H1661       H  0.29274947  0.15155031  0.70150331     0.07900
H1662       H  0.31858866  0.18248445  0.73475019     0.11600
H1663       H  0.39057161  0.21163683  0.69062153     0.11300
H1664       H  0.36513682  0.18000463  0.65786457     0.07900
C1665       C  0.88525735  0.47984774  0.87128309    -0.11200
C1666       C  0.85882833  0.47426856  0.87552442     0.05900
C1667       C  0.84123917  0.45090173  0.88873899    -0.10000
C1668       C  0.84987188  0.43304787  0.89697802    -0.11600
C1669       C  0.87598879  0.43805040  0.89150585    -0.01400
C1670       C  0.89366907  0.46190060  0.87902490    -0.10500
C1671       C  0.84942432  0.49137843  0.86337193     0.05900
H1672       H  0.82069645  0.44618322  0.89212680     0.07900
H1673       H  0.83585859  0.41484703  0.90658989     0.11300
H1674       H  0.91397111  0.46642416  0.87463257     0.11600
H1675       H  0.89905836  0.49747771  0.86082790     0.07900
C1676       C  0.86430996  0.51958554  0.86533173    -0.11200
C1677       C  0.85908854  0.53594710  0.84960301    -0.10500
C1678       C  0.83934676  0.52429435  0.83127470    -0.01400
C1679       C  0.82347446  0.49612823  0.83026931    -0.11600
C1680       C  0.82824628  0.47980430  0.84638738    -0.10000
H1681       H  0.88083931  0.52893040  0.87824777     0.07900
H1682       H  0.87162791  0.55759151  0.85064842     0.11600
H1683       H  0.80801566  0.48670441  0.81634413     0.11300
H1684       H  0.81669618  0.45814662  0.84435550     0.07900
C1685       C  0.84776942  0.30732425  0.81589481    -0.11200
C1686       C  0.82032619  0.29093926  0.82116083     0.05900
C1687       C  0.80914361  0.29726573  0.84158329    -0.10000
C1688       C  0.82536300  0.31849332  0.85730855    -0.11600
C1689       C  0.85303808  0.33403562  0.85276725    -0.01400
C1690       C  0.86396238  0.32885150  0.83146811    -0.10500
C1691       C  0.80398230  0.26550162  0.80745891     0.05900
H1692       H  0.78812796  0.28480879  0.84624456     0.07900
H1693       H  0.81640187  0.32213178  0.87355238     0.11300
H1694       H  0.88525116  0.34050561  0.82757473     0.11600
H1695       H  0.85683201  0.30291593  0.80018867     0.07900
C1696       C  0.77729286  0.25735269  0.80096859    -0.11200
C1697       C  0.76058214  0.23138700  0.79188414    -0.10500
C1698       C  0.77016840  0.21305706  0.78968087    -0.01400
C1699       C  0.79718126  0.22161447  0.79493493    -0.11600
C1700       C  0.81401084  0.24769088  0.80352074    -0.10000
H1701       H  0.76914215  0.27076862  0.80373427     0.07900
H1702       H  0.73978003  0.22514762  0.78796542     0.11600
H1703       H  0.80502588  0.20782267  0.79316611     0.11300
H1704       H  0.83442228  0.25334680  0.80854349     0.07900
C1705       C  0.95673062  0.44739004  0.00179907    -0.11200
C1706       C  0.97797732  0.47308644  0.99565983     0.05900
C1707       C  0.98443288  0.47930271  0.97044158    -0.10000
C1708       C  0.97008404  0.46046774  0.95197153    -0.11600
C1709       C  0.94856570  0.43512231  0.95822291    -0.01400
C1710       C  0.94207442  0.42879609  0.98330807    -0.10500
C1711       C  0.99331365  0.49315138  0.01545118     0.05900
H1712       H  0.00024328  0.49898683  0.96479533     0.07900
H1713       H  0.97530778  0.46602718  0.93278542     0.11300
H1714       H  0.92559557  0.40934362  0.98869801     0.11600
H1715       H  0.95146946  0.44146062  0.02088722     0.07900
C1716       C  0.98088941  0.49365249  0.03790862    -0.11200
C1717       C  0.99552786  0.51188676  0.05670450    -0.10500
C1718       C  0.02285242  0.53043385  0.05332832    -0.01400
C1719       C  0.03517081  0.53039049  0.03078228    -0.11600
C1720       C  0.02070463  0.51188285  0.01218496    -0.10000
H1721       H  0.95971693  0.48004806  0.04102875     0.07900
H1722       H  0.98547168  0.51150322  0.07383115     0.11600
H1723       H  0.05630395  0.54429560  0.02768367     0.11300
H1724       H  0.03124245  0.51192272  0.99551881     0.07900
C1725       C  0.14506873  0.15725952  0.00240955    -0.11200
C1726       C  0.15593108  0.17731022  0.98417205     0.05900
C1727       C  0.18389720  0.19138822  0.98052961    -0.10000
C1728       C  0.20077667  0.18661575  0.99588059    -0.11600
C1729       C  0.18999170  0.16822349  0.01548436    -0.01400
C1730       C  0.16195359  0.15294650  0.01811800    -0.10500
C1731       C  0.13870878  0.18662471  0.97215673     0.05900
H1732       H  0.19268820  0.20698012  0.96660224     0.07900
H1733       H  0.22233360  0.19866578  0.99350874     0.11300
H1734       H  0.15316874  0.13849286  0.03299411     0.11600
H1735       H  0.12358515  0.14630169  0.00570643     0.07900
C1736       C  0.11462146  0.16864369  0.96026522    -0.11200
C1737       C  0.09716067  0.17758512  0.95170934    -0.10500
C1738       C  0.10324509  0.20438694  0.95557953    -0.01400
C1739       C  0.12766544  0.22234604  0.96691555    -0.11600
C1740       C  0.14522822  0.21360749  0.97492333    -0.10000
H1741       H  0.10916157  0.14770306  0.95806490     0.07900
H1742       H  0.07842402  0.16331608  0.94306685     0.11600
H1743       H  0.13296952  0.24312268  0.97008605     0.11300
H1744       H  0.16345931  0.22776247  0.98437094     0.07900
C1745       C  0.17966332  0.35094956  0.83405471    -0.11200
C1746       C  0.16239303  0.32314382  0.83089784     0.05900
C1747       C  0.16486549  0.31089677  0.80905525    -0.10000
C1748       C  0.18388579  0.32608839  0.79085700    -0.11600
C1749       C  0.20115123  0.35379745  0.79426172    -0.01400
C1750       C  0.19888035  0.36596252  0.81612101    -0.10500
C1751       C  0.14197995  0.30726369  0.85032984     0.05900
H1752       H  0.15227508  0.28947597  0.80604575     0.07900
H1753       H  0.18515540  0.31616602  0.77421020     0.11300
H1754       H  0.21161767  0.38737276  0.81917683     0.11600
H1755       H  0.17806600  0.36135961  0.85018774     0.07900
C1756       C  0.14728183  0.31416669  0.87554062    -0.11200
C1757       C  0.12812406  0.29972680  0.89376539    -0.10500
C1758       C  0.10328707  0.27766585  0.88735894    -0.01400
C1759       C  0.09791213  0.27055514  0.86226050    -0.11600
C1760       C  0.11692442  0.28526698  0.84395107    -0.10000
H1761       H  0.16649253  0.33051013  0.88137290     0.07900
H1762       H  0.13302204  0.30546697  0.91295289     0.11600
H1763       H  0.07891752  0.25361118  0.85673113     0.11300
H1764       H  0.11181702  0.27955096  0.82480886     0.07900
C1765       C  0.95286115  0.31070090  0.89729573    -0.11200
C1766       C  0.95199522  0.29867753  0.92016225     0.05900
C1767       C  0.93801314  0.30238145  0.93998809    -0.10000
C1768       C  0.92592147  0.31850950  0.93720415    -0.11600
C1769       C  0.92816110  0.33171962  0.91470577    -0.01400
C1770       C  0.94129593  0.32721858  0.89467689    -0.10500
C1771       C  0.96775688  0.28453845  0.92385220     0.05900
H1772       H  0.93690553  0.29320028  0.95779661     0.07900
H1773       H  0.91585881  0.32157149  0.95288936     0.11300
H1774       H  0.94305880  0.33692102  0.87701391     0.11600
H1775       H  0.96359406  0.30837041  0.88176567     0.07900
C1776       C  0.96727400  0.26583968  0.90644650    -0.11200
C1777       C  0.98369064  0.25407265  0.90946364    -0.10500
C1778       C  0.00128195  0.26125361  0.92966792    -0.01400
C1779       C  0.00150134  0.27978710  0.94707714    -0.11600
C1780       C  0.98487539  0.29113048  0.94428944    -0.10000
H1781       H  0.95424776  0.26040608  0.89049087     0.07900
H1782       H  0.98305121  0.23985789  0.89577281     0.11600
H1783       H  0.01471344  0.28570697  0.96292457     0.11300
H1784       H  0.98601406  0.30574693  0.95778099     0.07900
C1785       C  0.91183752  0.14369039  0.03588357    -0.11200
C1786       C  0.93116217  0.13539172  0.03742712     0.05900
C1787       C  0.92417381  0.11044121  0.04835920    -0.10000
C1788       C  0.89798657  0.09377902  0.05702465    -0.11600
C1789       C  0.87833309  0.10156531  0.05426012    -0.01400
C1790       C  0.88565157  0.12688353  0.04402104    -0.10500
C1791       C  0.95736131  0.15160344  0.02499456     0.05900
H1792       H  0.93879612  0.10365550  0.04964739     0.07900
H1793       H  0.89282988  0.07434596  0.06488164     0.11300
H1794       H  0.87095627  0.13346335  0.04179981     0.11600
H1795       H  0.91667417  0.16269038  0.02722395     0.07900
C1796       C  0.96532344  0.13995487  0.00617151    -0.11200
C1797       C  0.98669501  0.15619861  0.99048931    -0.10500
C1798       C  0.00078432  0.18428188  0.99367354    -0.01400
C1799       C  0.99417967  0.19568006  0.01374695    -0.11600
C1800       C  0.97242130  0.17947774  0.02911603    -0.10000
H1801       H  0.95387558  0.11855142  0.00253555     0.07900
H1802       H  0.99153677  0.14689086  0.97523780     0.11600
H1803       H  0.00471273  0.21725036  0.01659030     0.11300
H1804       H  0.96657289  0.18884762  0.04355994     0.07900
C1805       C  0.49048004  0.09304567  0.38607032    -0.11200
C1806       C  0.50037761  0.11971063  0.37813691     0.05900
C1807       C  0.52748268  0.13860163  0.38265570    -0.10000
C1808       C  0.54475982  0.13046522  0.39312947    -0.11600
C1809       C  0.53520958  0.10328665  0.39884044    -0.01400
C1810       C  0.50778195  0.08488374  0.39608741    -0.10500
C1811       C  0.48351948  0.12645610  0.36199861     0.05900
H1812       H  0.53558065  0.15934781  0.37691428     0.07900
H1813       H  0.56589689  0.14492761  0.39495247     0.11300
H1814       H  0.50003151  0.06378931  0.40041133     0.11600
H1815       H  0.46980521  0.07797678  0.38272373     0.07900
C1816       C  0.49421373  0.14034862  0.33971478    -0.11200
C1817       C  0.47767562  0.14298336  0.32230933    -0.10500
C1818       C  0.45006079  0.13203608  0.32684663    -0.01400
C1819       C  0.43951554  0.11929478  0.34964750    -0.11600
C1820       C  0.45605210  0.11634595  0.36698480    -0.10000
H1821       H  0.51516954  0.14798948  0.33513061     0.07900
H1822       H  0.48643808  0.15307125  0.30498756     0.11600
H1823       H  0.41832142  0.11072785  0.35368873     0.11300
H1824       H  0.44726315  0.10558182  0.38402746     0.07900
C1825       C  0.66181001  0.12331034  0.32012211    -0.11200
C1826       C  0.67949987  0.15050372  0.32569793     0.05900
C1827       C  0.67445912  0.16198409  0.34664999    -0.10000
C1828       C  0.65305975  0.14629443  0.36244131    -0.11600
C1829       C  0.63601312  0.11883368  0.35750490    -0.01400
C1830       C  0.64006344  0.10764021  0.33579001    -0.10500
C1831       C  0.70483256  0.16620794  0.31164418     0.05900
H1832       H  0.68795304  0.18276287  0.35157848     0.07900
H1833       H  0.65039101  0.15549020  0.37901950     0.11300
H1834       H  0.62727738  0.08651778  0.33159431     0.11600
H1835       H  0.66528266  0.11401883  0.30402971     0.07900
C1836       C  0.72168976  0.15517288  0.30729903    -0.11200
C1837       C  0.74771871  0.17130650  0.29833478    -0.10500
C1838       C  0.75717681  0.19859871  0.29303296    -0.01400
C1839       C  0.73980653  0.20926338  0.29574540    -0.11600
C1840       C  0.71389984  0.19324753  0.30526187    -0.10000
H1841       H  0.71532837  0.13450173  0.31226802     0.07900
H1842       H  0.76079223  0.16266239  0.29625500     0.11600
H1843       H  0.74677377  0.23030810  0.29187865     0.11300
H1844       H  0.70123866  0.20219642  0.30842467     0.07900
C1845       C  0.52125075  0.01856767  0.50777673    -0.11200
C1846       C  0.49524406  0.99809417  0.50172260     0.05900
C1847       C  0.48850941  0.99241202  0.47654157    -0.10000
C1848       C  0.50722101  0.00655664  0.45796931    -0.11600
C1849       C  0.53300213  0.02715802  0.46405863    -0.01400
C1850       C  0.53983685  0.03305920  0.48913339    -0.10500
C1851       C  0.47528624  0.98239263  0.52141671     0.05900
H1852       H  0.46854038  0.97727366  0.47103338     0.07900
H1853       H  0.50127756  0.00180731  0.43881975     0.11300
H1854       H  0.55964553  0.04885048  0.49436965     0.11600
H1855       H  0.52738096  0.02322399  0.52687035     0.07900
C1856       C  0.45665594  0.95508971  0.51751669    -0.11200
C1857       C  0.43771609  0.94016334  0.53557504    -0.10500
C1858       C  0.43707151  0.95186182  0.55830899    -0.01400
C1859       C  0.45570751  0.97908916  0.56248449    -0.11600
C1860       C  0.47453556  0.99425334  0.54414713    -0.10000
H1861       H  0.45694497  0.94495897  0.50065832     0.07900
H1862       H  0.42386665  0.91912302  0.53183839     0.11600
H1863       H  0.45572983  0.98861309  0.57984986     0.11300
H1864       H  0.48832145  0.01532667  0.54773534     0.07900
C1865       C  0.79384983  0.85332039  0.46567251    -0.11200
C1866       C  0.77574807  0.82710740  0.47381223     0.05900
C1867       C  0.74808645  0.81785746  0.47233673    -0.10000
C1868       C  0.73874337  0.83495165  0.46423713    -0.11600
C1869       C  0.75683486  0.86148198  0.45711718    -0.01400
C1870       C  0.78444112  0.87033445  0.45716241    -0.10500
C1871       C  0.78538807  0.81048740  0.48650124     0.05900
H1872       H  0.73369609  0.79790218  0.47876197     0.07900
H1873       H  0.71732171  0.82766753  0.46422787     0.11300
H1874       H  0.79871986  0.89076920  0.45185440     0.11600
H1875       H  0.81528569  0.86088006  0.46657880     0.07900
C1876       C  0.77310638  0.78256973  0.48236040    -0.11200
C1877       C  0.77938493  0.76640545  0.49725714    -0.10500
C1878       C  0.79769658  0.77790163  0.51675130    -0.01400
C1879       C  0.81089803  0.80591939  0.52009146    -0.11600
C1880       C  0.80494267  0.82208578  0.50501194    -0.10000
H1881       H  0.75800589  0.77316762  0.46814476     0.07900
H1882       H  0.76879717  0.74480990  0.49447484     0.11600
H1883       H  0.82511466  0.81523282  0.53501978     0.11300
H1884       H  0.81446411  0.84346422  0.50882415     0.07900
C1885       C  0.69827735  0.00172864  0.41787994    -0.11200
C1886       C  0.67246677  0.99316384  0.42758073     0.05900
C1887       C  0.65915639  0.96848475  0.44007051    -0.10000
C1888       C  0.67120674  0.95257513  0.44283873    -0.11600
C1889       C  0.69691180  0.96081747  0.43306609    -0.01400
C1890       C  0.71036392  0.98553819  0.42045728    -0.10500
C1891       C  0.65844533  0.00890210  0.42402075     0.05900
H1892       H  0.63930243  0.96149284  0.44780535     0.07900
H1893       H  0.66022364  0.93366043  0.45262149     0.11300
H1894       H  0.73018833  0.99237975  0.41273570     0.11600
H1895       H  0.70878011  0.02059937  0.40796165     0.07900
C1896       C  0.67023525  0.03621369  0.43075282    -0.11200
C1897       C  0.65556959  0.04999394  0.42891961    -0.10500
C1898       C  0.62915651  0.03669441  0.41988989    -0.01400
C1899       C  0.61773844  0.00952774  0.41287011    -0.11600
C1900       C  0.63212588  0.99580799  0.41501105    -0.10000
H1901       H  0.69048284  0.04663844  0.43792405     0.07900
H1902       H  0.66489011  0.07097641  0.43428097     0.11600
H1903       H  0.59742990  0.99868040  0.40586645     0.11300
H1904       H  0.62263061  0.97480970  0.40961886     0.07900
C1905       C  0.78025385  0.99181067  0.53237237    -0.11200
C1906       C  0.80832273  0.00304323  0.53039487     0.05900
C1907       C  0.81863635  0.99081117  0.51445002    -0.10000
C1908       C  0.80148191  0.96959717  0.49903042    -0.11600
C1909       C  0.77363372  0.95983063  0.49964738    -0.01400
C1910       C  0.76305376  0.97025023  0.51722427    -0.10500
C1911       C  0.82658573  0.02977853  0.54155558     0.05900
H1912       H  0.84013231  0.99901093  0.51244279     0.07900
H1913       H  0.81005183  0.96168060  0.48574149     0.11300
H1914       H  0.74163913  0.96307653  0.51799738     0.11600
H1915       H  0.77173598  0.00065492  0.54467955     0.07900
C1916       C  0.82035914  0.05058454  0.53906148    -0.11200
C1917       C  0.83848196  0.07674344  0.54640165    -0.10500
C1918       C  0.86334723  0.08290479  0.55672713    -0.01400
C1919       C  0.86940236  0.06202870  0.56014251    -0.11600
C1920       C  0.85127656  0.03567733  0.55235774    -0.10000
H1921       H  0.80180938  0.04690332  0.53035938     0.07900
H1922       H  0.83315731  0.09231695  0.54360950     0.11600
H1923       H  0.88849000  0.06624662  0.56800852     0.11300
H1924       H  0.85664110  0.02005192  0.55441623     0.07900
C1925       C  0.64537959  0.82779270  0.36940197    -0.11200
C1926       C  0.65938116  0.82824248  0.34767004     0.05900
C1927       C  0.68685426  0.84715766  0.34601590    -0.10000
C1928       C  0.69996880  0.86486733  0.36553379    -0.11600
C1929       C  0.68614010  0.86399465  0.38739999    -0.01400
C1930       C  0.65864179  0.84532289  0.38912223    -0.10500
C1931       C  0.64567943  0.80875732  0.32705243     0.05900
H1932       H  0.69846416  0.84787899  0.32989460     0.07900
H1933       H  0.72125624  0.87888714  0.36368935     0.11300
H1934       H  0.64742479  0.84430222  0.40565349     0.11600
H1935       H  0.62406939  0.81390310  0.37120710     0.07900
C1936       C  0.62532168  0.78234999  0.33218235    -0.11200
C1937       C  0.61218064  0.76415511  0.31299209    -0.10500
C1938       C  0.61918087  0.77166571  0.28814233    -0.01400
C1939       C  0.63997263  0.79775887  0.28288701    -0.11600
C1940       C  0.65295008  0.81614708  0.30212396    -0.10000
H1941       H  0.61958663  0.77562739  0.35104335     0.07900
H1942       H  0.59629952  0.74409716  0.31766592     0.11600
H1943       H  0.64557445  0.80420586  0.26392658     0.11300
H1944       H  0.66829020  0.83640024  0.29735934     0.07900
loop_ 
_geom_bond_atom_site_label_1 
_geom_bond_atom_site_label_2 
_geom_bond_distance 
_geom_bond_site_symmetry_2 
_ccdc_geom_bond_type 
O1            V9   1.908       .  S
O1           C11   1.266       .  A
O2            V9   1.917       .  S
O2           C12   1.269       .  A
O3            V9   1.890       .  S
O3           C13   1.262       .  A
O4            V9   1.893       .  S
O4           C14   1.263       .  A
O5           V10   1.913       .  S
O5           C14   1.268       .  A
O6           V10   1.917       .  S
O6           C13   1.268       .  A
O7           V10   1.882       .  S
O7           C12   1.261       .  A
O8           V10   1.885       .  S
O8           C11   1.261       .  A
V9           V10   2.087       .  T
C11        C1869   1.470       .  S
C12        C1889   1.481       .  S
C13        C1909   1.477       .  S
C14        C1929   1.483       .  S
O15          V23   1.919       .  S
O15          C25   1.268       .  A
O16          V23   1.920       .  S
O16          C26   1.269       .  A
O17          V23   1.889       .  S
O17          C27   1.262       .  A
O18          V23   1.896       .  S
O18          C28   1.263       .  A
O19          V24   1.904       .  S
O19          C28   1.267       .  A
O20          V24   1.912       .  S
O20          C27   1.267       .  A
O21          V24   1.881       .  S
O21          C26   1.261       .  A
O22          V24   1.882       .  S
O22          C25   1.260       .  A
V23          V24   2.087       .  T
C25        C1809   1.472       .  S
C26        C1898   1.480       .  S
C27        C1829   1.478       .  S
C28        C1849   1.478       .  S
O29          V37   1.918       .  S
O29          C39   1.269       .  A
O30          V37   1.922       .  S
O30          C40   1.270       .  A
O31          V37   1.899       .  S
O31          C41   1.264       .  A
O32          V37   1.894       .  S
O32          C42   1.263       .  A
O33          V38   1.907       .  S
O33          C42   1.266       .  A
O34          V38   1.906       .  S
O34          C41   1.267       .  A
O35          V38   1.889       .  S
O35          C40   1.262       .  A
O36          V38   1.885       .  S
O36          C39   1.262       .  A
V37          V38   2.086       .  T
C39        C1738   1.481       .  S
C40        C1778   1.487       .  S
C41        C1758   1.483       .  S
C42        C1798   1.477       .  S
O43          V51   1.917       .  S
O43          C53   1.268       .  A
O44          V51   1.919       .  S
O44          C54   1.269       .  A
O45          V51   1.895       .  S
O45          C55   1.263       .  A
O46          V51   1.892       .  S
O46          C56   1.263       .  A
O47          V52   1.905       .  S
O47          C56   1.266       .  A
O48          V52   1.907       .  S
O48          C55   1.267       .  A
O49          V52   1.890       .  S
O49          C54   1.262       .  A
O50          V52   1.886       .  S
O50          C53   1.262       .  A
V51          V52   2.086       .  T
C53        C1669   1.481       .  S
C54        C1769   1.482       .  S
C55        C1709   1.480       .  S
C56        C1689   1.476       .  S
O57          V65   1.912       .  S
O57          C67   1.267       .  A
O58          V65   1.913       .  S
O58          C68   1.268       .  A
O59          V65   1.901       .  S
O59          C69   1.265       .  A
O60          V65   1.901       .  S
O60          C70   1.265       .  A
O61          V66   1.910       .  S
O61          C70   1.267       .  A
O62          V66   1.912       .  S
O62          C69   1.267       .  A
O63          V66   1.896       .  S
O63          C68   1.264       .  A
O64          V66   1.893       .  S
O64          C67   1.263       .  A
V65          V66   2.086       .  T
C67        C1589   1.479       .  S
C68        C1609   1.485   1_545  S
C69        C1649   1.488       .  S
C70        C1629   1.485   1_545  S
O71          V79   1.914       .  S
O71          C81   1.268       .  A
O72          V79   1.918       .  S
O72          C82   1.269       .  A
O73          V79   1.886       .  S
O73          C83   1.262       .  A
O74          V79   1.886       .  S
O74          C84   1.262       .  A
O75          V80   1.910       .  S
O75          C84   1.268       .  A
O76          V80   1.913       .  S
O76          C83   1.268       .  A
O77          V80   1.893       .  S
O77          C82   1.263       .  A
O78          V80   1.893       .  S
O78          C81   1.263       .  A
V79          V80   2.085       .  T
C81        C1549   1.484       .  S
C82        C1618   1.485       .  S
C83        C1858   1.480       .  S
C84        C1578   1.478       .  S
O85          V93   1.912       .  S
O85          C95   1.267       .  A
O86          V93   1.918       .  S
O86          C96   1.270       .  A
O87          V93   1.891       .  S
O87          C97   1.263       .  A
O88          V93   1.898       .  S
O88          C98   1.264       .  A
O89          V94   1.916       .  S
O89          C98   1.269       .  A
O90          V94   1.917       .  S
O90          C97   1.269       .  A
O91          V94   1.887       .  S
O91          C96   1.261       .  A
O92          V94   1.886       .  S
O92          C95   1.261       .  A
V93          V94   2.085       .  T
C95        C1489   1.473       .  S
C96        C1509   1.483       .  S
C97        C1529   1.482       .  S
C98        C1658   1.489       .  S
O99         V107   1.917       .  S
O99         C109   1.268       .  A
O100        V107   1.920       .  S
O100        C110   1.270       .  A
O101        V107   1.894       .  S
O101        C111   1.263       .  A
O102        V107   1.894       .  S
O102        C112   1.263       .  A
O103        V108   1.912       .  S
O103        C112   1.268       .  A
O104        V108   1.913       .  S
O104        C111   1.268       .  A
O105        V108   1.886       .  S
O105        C110   1.261       .  A
O106        V108   1.886       .  S
O106        C109   1.262       .  A
V107        V108   2.085       .  T
C109       C1458   1.478       .  S
C110       C1518   1.481       .  S
C111       C1478   1.483       .  S
C112       C1749   1.484       .  S
O113        V121   1.914       .  S
O113        C123   1.267       .  A
O114        V121   1.917       .  S
O114        C124   1.269       .  A
O115        V121   1.892       .  S
O115        C125   1.263       .  A
O116        V121   1.892       .  S
O116        C126   1.263       .  A
O117        V122   1.907       .  S
O117        C126   1.266       .  A
O118        V122   1.904       .  S
O118        C125   1.266       .  A
O119        V122   1.894       .  S
O119        C124   1.263       .  A
O120        V122   1.890       .  S
O120        C123   1.263       .  A
V121        V122   2.087       .  T
C123       C1369   1.478       .  S
C124       C1409   1.485       .  S
C125       C1398   1.476       .  S
C126       C1429   1.475       .  S
O127        V135   1.914       .  S
O127        C137   1.267       .  A
O128        V135   1.915       .  S
O128        C138   1.269       .  A
O129        V135   1.888       .  S
O129        C139   1.262       .  A
O130        V135   1.886       .  S
O130        C140   1.261       .  A
O131        V136   1.917       .  S
O131        C140   1.269       .  A
O132        V136   1.917       .  S
O132        C139   1.269       .  A
O133        V136   1.894       .  S
O133        C138   1.262       .  A
O134        V136   1.887       .  S
O134        C137   1.261       .  A
V135        V136   2.086       .  T
C137       C1338   1.475       .  S
C138       C1418   1.484       .  S
C139       C1938   1.482       .  S
C140       C1358   1.480       .  S
O141        V149   1.908       .  S
O141        C151   1.266       .  A
O142        V149   1.914       .  S
O142        C152   1.268       .  A
O143        V149   1.889       .  S
O143        C153   1.262       .  A
O144        V149   1.895       .  S
O144        C154   1.264       .  A
O145        V150   1.907       .  S
O145        C154   1.267       .  A
O146        V150   1.908       .  S
O146        C153   1.266       .  A
O147        V150   1.890       .  S
O147        C152   1.262       .  A
O148        V150   1.892       .  S
O148        C151   1.263       .  A
V149        V150   2.087       .  T
C151       C1278   1.472       .  S
C152       C1289   1.482       .  S
C153       C1309   1.472       .  S
C154       C1718   1.481       .  S
O155        V163   1.916       .  S
O155        C165   1.269       .  A
O156        V163   1.919       .  S
O156        C166   1.269       .  A
O157        V163   1.888       .  S
O157        C167   1.262       .  A
O158        V163   1.888       .  S
O158        C168   1.262       .  A
O159        V164   1.912       .  S
O159        C168   1.268       .  A
O160        V164   1.913       .  S
O160        C167   1.268       .  A
O161        V164   1.885       .  S
O161        C166   1.261       .  A
O162        V164   1.891       .  S
O162        C165   1.263       .  A
V163        V164   2.086       .  T
C165       C1238   1.483       .  S
C166       C1298   1.480       .  S
C167       C1249   1.479       .  S
C168       C1389   1.480       .  S
O169        V177   1.911       .  S
O169        C179   1.267       .  A
O170        V177   1.913       .  S
O170        C180   1.268       .  A
O171        V177   1.885       .  S
O171        C181   1.261       .  A
O172        V177   1.888       .  S
O172        C182   1.262       .  A
O173        V178   1.910       .  S
O173        C182   1.268       .  A
O174        V178   1.911       .  S
O174        C181   1.267       .  A
O175        V178   1.884       .  S
O175        C180   1.261       .  A
O176        V178   1.885       .  S
O176        C179   1.262       .  A
V177        V178   2.087       .  T
C179       C1169   1.474       .  S
C180       C1209   1.477       .  S
C181       C1329   1.473       .  S
C182       C1189   1.480       .  S
O183        V191   1.907       .  S
O183        C193   1.266       .  A
O184        V191   1.912       .  S
O184        C194   1.267       .  A
O185        V191   1.890       .  S
O185        C195   1.262       .  A
O186        V191   1.891       .  S
O186        C196   1.262       .  A
O187        V192   1.912       .  S
O187        C196   1.268       .  A
O188        V192   1.914       .  S
O188        C195   1.268       .  A
O189        V192   1.885       .  S
O189        C194   1.262       .  A
O190        V192   1.890       .  S
O190        C193   1.263       .  A
V191        V192   2.086       .  T
C193       C1789   1.476       .  S
C194       C1218   1.475       .  S
C195       C1158   1.478       .  S
C196       C1138   1.480       .  S
O197        V205   1.908       .  S
O197        C207   1.266       .  A
O198        V205   1.911       .  S
O198        C208   1.268       .  A
O199        V205   1.890       .  S
O199        C209   1.262       .  A
O200        V205   1.886       .  S
O200        C210   1.262       .  A
O201        V206   1.908       .  S
O201        C210   1.266       .  A
O202        V206   1.907       .  S
O202        C209   1.267       .  A
O203        V206   1.893       .  S
O203        C208   1.263       .  A
O204        V206   1.891       .  S
O204        C207   1.262       .  A
V205        V206   2.087       .  T
C207       C1838   1.472       .  S
C208       C1089   1.481       .  S
C209       C1129   1.479       .  S
C210       C1109   1.471       .  S
O211        V219   1.912       .  S
O211        C221   1.267       .  A
O212        V219   1.911       .  S
O212        C222   1.267       .  A
O213        V219   1.887       .  S
O213        C223   1.262       .  A
O214        V219   1.889       .  S
O214        C224   1.262       .  A
O215        V220   1.911       .  S
O215        C224   1.267       .  A
O216        V220   1.911       .  S
O216        C223   1.267       .  A
O217        V220   1.893       .  S
O217        C222   1.263       .  A
O218        V220   1.890       .  S
O218        C221   1.263       .  A
V219        V220   2.087       .  T
C221       C1058   1.480       .  S
C222       C1098   1.480       .  S
C223       C1078   1.475       .  S
C224       C1269   1.479       .  S
O225        V233   1.912       .  S
O225        C235   1.267       .  A
O226        V233   1.918       .  S
O226        C236   1.269       .  A
O227        V233   1.885       .  S
O227        C237   1.261       .  A
O228        V233   1.890       .  S
O228        C238   1.262       .  A
O229        V234   1.908       .  S
O229        C238   1.267       .  A
O230        V234   1.918       .  S
O230        C237   1.268       .  A
O231        V234   1.889       .  S
O231        C236   1.262       .  A
O232        V234   1.890       .  S
O232        C235   1.262       .  A
V233        V234   2.087       .  T
C235       C1018   1.476       .  S
C236       C1029   1.482       .  S
C237       C1598   1.476       .  S
C238       C1069   1.479       .  S
O239        V247   1.914       .  S
O239        C249   1.267       .  A
O240        V247   1.921       .  S
O240        C250   1.270       .  A
O241        V247   1.888       .  S
O241        C251   1.262       .  A
O242        V247   1.891       .  S
O242        C252   1.263       .  A
O243        V248   1.907       .  S
O243        C252   1.266       .  A
O244        V248   1.909       .  S
O244        C251   1.267       .  A
O245        V248   1.886       .  S
O245        C250   1.261       .  A
O246        V248   1.885       .  S
O246        C249   1.262       .  A
V247        V248   2.087       .  T
C249       C1438   1.475       .  S
C250       C1038   1.486       .  S
C251        C998   1.475       .  S
C252        C978   1.476       .  S
O253        V261   1.915       .  S
O253        C263   1.267       .  A
O254        V261   1.915       .  S
O254        C264   1.268       .  A
O255        V261   1.893       .  S
O255        C265   1.263       .  A
O256        V261   1.887       .  S
O256        C266   1.262       .  A
O257        V262   1.907       .  S
O257        C266   1.266       .  A
O258        V262   1.905       .  S
O258        C265   1.266       .  A
O259        V262   1.890       .  S
O259        C264   1.262       .  A
O260        V262   1.892       .  S
O260        C263   1.263       .  A
V261        V262   2.087       .  T
C263       C1469   1.478       .  S
C264        C929   1.481       .  S
C265        C969   1.477       .  S
C266        C949   1.472       .  S
O267        V275   1.913       .  S
O267        C277   1.267       .  A
O268        V275   1.913       .  S
O268        C278   1.268       .  A
O269        V275   1.892       .  S
O269        C279   1.262       .  A
O270        V275   1.889       .  S
O270        C280   1.262       .  A
O271        V276   1.906       .  S
O271        C280   1.266       .  A
O272        V276   1.905       .  S
O272        C279   1.266       .  A
O273        V276   1.892       .  S
O273        C278   1.263       .  A
O274        V276   1.892       .  S
O274        C277   1.263       .  A
V275        V276   2.087       .  T
C277        C889   1.479       .  S
C278        C938   1.480       .  S
C279        C918   1.474       .  S
C280       C1878   1.472       .  S
O281        V289   1.911       .  S
O281        C291   1.266       .  A
O282        V289   1.916       .  S
O282        C292   1.269       .  A
O283        V289   1.892       .  S
O283        C293   1.262       .  A
O284        V289   1.895       .  S
O284        C294   1.264       .  A
O285        V290   1.905       .  S
O285        C294   1.266       .  A
O286        V290   1.911       .  S
O286        C293   1.267       .  A
O287        V290   1.884       .  S
O287        C292   1.261       .  A
O288        V290   1.884       .  S
O288        C291   1.261       .  A
V289        V290   2.087       .  T
C291        C849   1.471       .  S
C292        C869   1.479       .  S
C293       C1678   1.476       .  S
C294        C909   1.481       .  S
O295        V303   1.912       .  S
O295        C305   1.267       .  A
O296        V303   1.914       .  S
O296        C306   1.268       .  A
O297        V303   1.890       .  S
O297        C307   1.262       .  A
O298        V303   1.892       .  S
O298        C308   1.263       .  A
O299        V304   1.908       .  S
O299        C308   1.267       .  A
O300        V304   1.915       .  S
O300        C307   1.268       .  A
O301        V304   1.884       .  S
O301        C306   1.261       .  A
O302        V304   1.886       .  S
O302        C305   1.261       .  A
V303        V304   2.087       .  T
C305       C1569   1.470       .  S
C306        C878   1.480       .  S
C307        C809   1.479       .  S
C308        C829   1.479       .  S
O309        V317   1.914       .  S
O309        C319   1.268       .  A
O310        V317   1.916       .  S
O310        C320   1.269       .  A
O311        V317   1.892       .  S
O311        C321   1.262       .  A
O312        V317   1.890       .  S
O312        C322   1.263       .  A
O313        V318   1.907       .  S
O313        C322   1.266       .  A
O314        V318   1.904       .  S
O314        C321   1.266       .  A
O315        V318   1.894       .  S
O315        C320   1.264       .  A
O316        V318   1.892       .  S
O316        C319   1.263       .  A
V317        V318   2.086       .  T
C319        C769   1.479       .  S
C320        C798   1.486       .  S
C321       C1198   1.473       .  S
C322       C1498   1.476       .  S
O323        V331   1.916       .  S
O323        C333   1.269       .  A
O324        V331   1.921       .  S
O324        C334   1.270       .  A
O325        V331   1.885       .  S
O325        C335   1.261       .  A
O326        V331   1.886       .  S
O326        C336   1.261       .  A
O327        V332   1.913       .  S
O327        C336   1.268       .  A
O328        V332   1.913       .  S
O328        C335   1.268       .  A
O329        V332   1.888       .  S
O329        C334   1.261       .  A
O330        V332   1.891       .  S
O330        C333   1.262       .  A
V331        V332   2.086       .  T
C333       C1258   1.480       .  S
C334        C789   1.482       .  S
C335        C838   1.479       .  S
C336        C749   1.476       .  S
O337        V345   1.913       .  S
O337        C347   1.267       .  A
O338        V345   1.913       .  S
O338        C348   1.268       .  A
O339        V345   1.890       .  S
O339        C349   1.262       .  A
O340        V345   1.889       .  S
O340        C350   1.262       .  A
O341        V346   1.907       .  S
O341        C350   1.266       .  A
O342        V346   1.906       .  S
O342        C349   1.266       .  A
O343        V346   1.892       .  S
O343        C348   1.263       .  A
O344        V346   1.890       .  S
O344        C347   1.263       .  A
V345        V346   2.087       .  T
C347       C1538   1.477       .  S
C348        C718   1.480       .  S
C349        C738   1.475       .  S
C350        C858   1.474       .  S
O351        V359   1.918       .  S
O351        C361   1.269       .  A
O352        V359   1.920       .  S
O352        C362   1.270       .  A
O353        V359   1.898       .  S
O353        C363   1.264       .  A
O354        V359   1.893       .  S
O354        C364   1.263       .  A
O355        V360   1.916       .  S
O355        C364   1.268       .  A
O356        V360   1.915       .  S
O356        C363   1.269       .  A
O357        V360   1.886       .  S
O357        C362   1.261       .  A
O358        V360   1.885       .  S
O358        C361   1.261       .  A
V359        V360   2.085       .  T
C361       C1149   1.480       .  S
C362        C709   1.483       .  S
C363        C689   1.487       .  S
C364       C1229   1.480       .  S
O365        V373   1.906       .  S
O365        C375   1.266       .  A
O366        V373   1.911       .  S
O366        C376   1.268       .  A
O367        V373   1.888       .  S
O367        C377   1.262       .  A
O368        V373   1.889       .  S
O368        C378   1.262       .  A
O369        V374   1.908       .  S
O369        C378   1.267       .  A
O370        V374   1.912       .  S
O370        C377   1.268       .  A
O371        V374   1.888       .  S
O371        C376   1.262       .  A
O372        V374   1.891       .  S
O372        C375   1.262       .  A
V373        V374   2.086       .  T
C375       C1698   1.471       .  S
C376        C669   1.478       .  S
C377        C778   1.478       .  S
C378        C649   1.476       .  S
O379        V387   1.909       .  S
O379        C389   1.267       .  A
O380        V387   1.914       .  S
O380        C390   1.268       .  A
O381        V387   1.894       .  S
O381        C391   1.263       .  A
O382        V387   1.895       .  S
O382        C392   1.264       .  A
O383        V388   1.916       .  S
O383        C392   1.269       .  A
O384        V388   1.916       .  S
O384        C391   1.268       .  A
O385        V388   1.885       .  S
O385        C390   1.261       .  A
O386        V388   1.887       .  S
O386        C389   1.262       .  A
V387        V388   2.086       .  T
C389        C958   1.474       .  S
C390        C678   1.478       .  S
C391       C1558   1.480       .  S
C392        C698   1.488       .  S
O393        V401   1.920       .  S
O393        C403   1.269       .  A
O394        V401   1.919       .  S
O394        C404   1.269       .  A
O395        V401   1.892       .  S
O395        C405   1.263       .  A
O396        V401   1.892       .  S
O396        C406   1.263       .  A
O397        V402   1.906       .  S
O397        C406   1.266       .  A
O398        V402   1.905       .  S
O398        C405   1.266       .  A
O399        V402   1.888       .  S
O399        C404   1.262       .  A
O400        V402   1.887       .  S
O400        C403   1.262       .  A
V401        V402   2.086       .  T
C403       C1918   1.482       .  S
C404        C629   1.484       .  S
C405        C658   1.476       .  S
C406       C1009   1.476       .  S
O407        V415   1.914       .  S
O407        C417   1.268       .  A
O408        V415   1.916       .  S
O408        C418   1.268       .  A
O409        V415   1.900       .  S
O409        C419   1.264       .  A
O410        V415   1.894       .  S
O410        C420   1.263       .  A
O411        V416   1.911       .  S
O411        C420   1.266       .  A
O412        V416   1.908       .  S
O412        C419   1.267       .  A
O413        V416   1.893       .  S
O413        C418   1.263       .  A
O414        V416   1.893       .  S
O414        C417   1.263       .  A
V415        V416   2.087       .  T
C417        C818   1.480       .  S
C418        C638   1.482       .  S
C419        C618   1.483       .  S
C420       C1449   1.478       .  S
O421        V429   1.909       .  S
O421        C431   1.266       .  A
O422        V429   1.916       .  S
O422        C432   1.268       .  A
O423        V429   1.892       .  S
O423        C433   1.263       .  A
O424        V429   1.897       .  S
O424        C434   1.264       .  A
O425        V430   1.913       .  S
O425        C434   1.268       .  A
O426        V430   1.914       .  S
O426        C433   1.268       .  A
O427        V430   1.878       .  S
O427        C432   1.260       .  A
O428        V430   1.880       .  S
O428        C431   1.260       .  A
V429        V430   2.086       .  T
C431       C1118   1.469       .  S
C432        C598   1.479       .  S
C433       C1378   1.480       .  S
C434        C609   1.486       .  S
O435        V443   1.913       .  S
O435        C445   1.267       .  A
O436        V443   1.914       .  S
O436        C446   1.268       .  A
O437        V443   1.887       .  S
O437        C447   1.262       .  A
O438        V443   1.895       .  S
O438        C448   1.263       .  A
O439        V444   1.911       .  S
O439        C448   1.268       .  A
O440        V444   1.918       .  S
O440        C447   1.269       .  A
O441        V444   1.883       .  S
O441        C446   1.261       .  A
O442        V444   1.886       .  S
O442        C445   1.262       .  A
V443        V444   2.086       .  T
C445       C1638   1.476       .  S
C446        C589   1.476       .  S
C447        C898   1.480       .  S
C448        C569   1.483       .  S
O449        V457   1.915       .  S
O449        C459   1.268       .  A
O450        V457   1.917       .  S
O450        C460   1.269       .  A
O451        V457   1.901       .  S
O451        C461   1.265       .  A
O452        V457   1.898       .  S
O452        C462   1.265       .  A
O453        V458   1.908       .  S
O453        C462   1.266       .  A
O454        V458   1.906       .  S
O454        C461   1.267       .  A
O455        V458   1.886       .  S
O455        C460   1.262       .  A
O456        V458   1.883       .  S
O456        C459   1.261       .  A
V457        V458   2.086       .  T
C459        C989   1.475       .  S
C460        C558   1.481       .  S
C461        C529   1.482       .  S
C462       C1818   1.482       .  S
O463        V471   1.908       .  S
O463        C473   1.267       .  A
O464        V471   1.912       .  S
O464        C474   1.267       .  A
O465        V471   1.894       .  S
O465        C475   1.263       .  A
O466        V471   1.893       .  S
O466        C476   1.263       .  A
O467        V472   1.908       .  S
O467        C476   1.267       .  A
O468        V472   1.911       .  S
O468        C475   1.267       .  A
O469        V472   1.892       .  S
O469        C474   1.263       .  A
O470        V472   1.891       .  S
O470        C473   1.263       .  A
V471        V472   2.087       .  T
C473       C1318   1.477       .  S
C474        C549   1.480       .  S
C475        C578   1.481       .  S
C476       C1178   1.476       .  S
O477        V485   1.916       .  S
O477        C487   1.268       .  A
O478        V485   1.924       .  S
O478        C488   1.271       .  A
O479        V485   1.892       .  S
O479        C489   1.262       .  A
O480        V485   1.895       .  S
O480        C490   1.263       .  A
O481        V486   1.910       .  S
O481        C490   1.268       .  A
O482        V486   1.912       .  S
O482        C489   1.267       .  A
O483        V486   1.883       .  S
O483        C488   1.261       .  A
O484        V486   1.885       .  S
O484        C487   1.261       .  A
V485        V486   2.086       .  T
C487        C758   1.477       .  S
C488        C518   1.487       .  S
C489       C1729   1.477       .  S
C490        C538   1.484       .  S
O491        V499   1.910       .  S
O491        C501   1.266       .  A
O492        V499   1.915       .  S
O492        C502   1.268       .  A
O493        V499   1.888       .  S
O493        C503   1.262       .  A
O494        V499   1.895       .  S
O494        C504   1.263       .  A
O495        V500   1.902       .  S
O495        C504   1.266       .  A
O496        V500   1.911       .  S
O496        C503   1.267       .  A
O497        V500   1.893       .  S
O497        C502   1.262       .  A
O498        V500   1.894       .  S
O498        C501   1.264       .  A
V499        V500   2.087       .  T
C501       C1349   1.477       .  S
C502        C509   1.478       .  S
C503       C1049   1.474       .  S
C504        C729   1.477       .  S
C505        C506   1.406       .  A
C505        C510   1.405       .  A
C505        H515   1.083       .  S
C506        C511   1.487       .  S
C506        C507   1.406       .  A
C507        C508   1.397       .  A
C507        H512   1.083       .  S
C508        C509   1.403       .  A
C508        H513   1.084       .  S
C509        C510   1.405       .  A
C510        H514   1.083       .  S
C511        C516   1.409       .  A
C511        C520   1.401       .  A
C516        C517   1.408       .  A
C516        H521   1.082       .  S
C517        C518   1.407       .  A
C517        H522   1.084       .  S
C518        C519   1.408       .  A
C519        C520   1.394       .  A
C519        H523   1.082       .  S
C520        H524   1.084       .  S
C525        C526   1.410       .  A
C525        C530   1.400       .  A
C525        H535   1.081       .  S
C526        C531   1.497       .  S
C526        C527   1.409       .  A
C527        C528   1.400       .  A
C527        H532   1.083       .  S
C528        C529   1.404       .  A
C528        H533   1.082       .  S
C529        C530   1.404       .  A
C530        H534   1.085       .  S
C531        C536   1.410       .  A
C531        C540   1.408       .  A
C536        C537   1.402       .  A
C536        H541   1.084       .  S
C537        C538   1.404       .  A
C537        H542   1.082       .  S
C538        C539   1.405       .  A
C539        C540   1.398       .  A
C539        H543   1.084       .  S
C540        H544   1.081       .  S
C545        C546   1.408       .  A
C545        C550   1.403       .  A
C545        H555   1.083       .  S
C546        C551   1.485       .  S
C546        C547   1.403       .  A
C547        C548   1.397       .  A
C547        H552   1.083       .  S
C548        C549   1.406       .  A
C548        H553   1.083       .  S
C549        C550   1.405       .  A
C550        H554   1.083       .  S
C551        C556   1.402   1_565  A
C551        C560   1.409   1_565  A
C556        C557   1.395       .  A
C556        H561   1.083   1_545  S
C557        C558   1.406       .  A
C557        H562   1.083       .  S
C558        C559   1.405       .  A
C559        C560   1.404       .  A
C559        H563   1.083       .  S
C560        H564   1.083       .  S
C565        C566   1.407       .  A
C565        C570   1.400       .  A
C565        H575   1.081       .  S
C566        C571   1.495       .  S
C566        C567   1.410       .  A
C567        C568   1.400       .  A
C567        H572   1.083       .  S
C568        C569   1.403       .  A
C568        H573   1.082       .  S
C569        C570   1.406       .  A
C570        H574   1.084       .  S
C571        C576   1.410       .  A
C571        C580   1.407       .  A
C576        C577   1.403       .  A
C576        H581   1.083       .  S
C577        C578   1.405       .  A
C577        H582   1.082       .  S
C578        C579   1.403       .  A
C579        C580   1.396       .  A
C579        H583   1.084       .  S
C580        H584   1.081       .  S
C585        C586   1.401   1_455  A
C585        C590   1.390       .  A
C585        H595   1.083       .  S
C586        C591   1.475       .  S
C586        C587   1.404       .  A
C587        C588   1.404       .  A
C587        H592   1.083       .  S
C588        C589   1.406   1_655  A
C588        H593   1.082       .  S
C589        C590   1.404       .  A
C590        H594   1.084       .  S
C591        C596   1.399       .  A
C591        C600   1.406       .  A
C596        C597   1.389       .  A
C596        H601   1.085       .  S
C597        C598   1.406       .  A
C597        H602   1.082       .  S
C598        C599   1.406       .  A
C599        C600   1.405       .  A
C599        H603   1.084       .  S
C600        H604   1.082       .  S
C605        C606   1.409       .  A
C605        C610   1.397       .  A
C605        H615   1.080       .  S
C606        C611   1.500       .  S
C606        C607   1.411       .  A
C607        C608   1.404       .  A
C607        H612   1.084   1_655  S
C608        C609   1.406       .  A
C608        H613   1.081       .  S
C609        C610   1.404       .  A
C610        H614   1.085       .  S
C611        C616   1.410       .  A
C611        C620   1.411   1_655  A
C616        C617   1.399       .  A
C616        H621   1.084       .  S
C617        C618   1.403   1_655  A
C617        H622   1.081       .  S
C618        C619   1.405       .  A
C619        C620   1.402       .  A
C619        H623   1.085       .  S
C620        H624   1.080       .  S
C625        C626   1.408       .  A
C625        C630   1.405       .  A
C625        H635   1.083   1_655  S
C626        C631   1.486   1_655  S
C626        C627   1.402       .  A
C627        C628   1.396       .  A
C627        H632   1.083       .  S
C628        C629   1.407       .  A
C628        H633   1.083       .  S
C629        C630   1.405       .  A
C630        H634   1.083       .  S
C631        C636   1.403       .  A
C631        C640   1.408       .  A
C636        C637   1.398       .  A
C636        H641   1.082   1_455  S
C637        C638   1.406       .  A
C637        H642   1.083       .  S
C638        C639   1.404       .  A
C639        C640   1.403       .  A
C639        H643   1.083       .  S
C640        H644   1.083       .  S
C645        C646   1.408       .  A
C645        C650   1.399       .  A
C645        H655   1.084       .  S
C646        C651   1.485       .  S
C646        C647   1.404       .  A
C647        C648   1.395       .  A
C647        H652   1.082       .  S
C648        C649   1.405       .  A
C648        H653   1.084       .  S
C649        C650   1.403       .  A
C650        H654   1.082       .  S
C651        C656   1.405       .  A
C651        C660   1.407       .  A
C656        C657   1.395       .  A
C656        H661   1.082       .  S
C657        C658   1.404       .  A
C657        H662   1.084       .  S
C658        C659   1.404       .  A
C659        C660   1.399       .  A
C659        H663   1.082       .  S
C660        H664   1.084       .  S
C665        C666   1.402   1_545  A
C665        C670   1.395       .  A
C665        H675   1.084   1_545  S
C666        C671   1.481       .  S
C666        C667   1.407   1_565  A
C667        C668   1.401       .  A
C667        H672   1.083       .  S
C668        C669   1.404       .  A
C668        H673   1.083       .  S
C669        C670   1.406       .  A
C670        H674   1.083       .  S
C671        C676   1.402       .  A
C671        C680   1.407       .  A
C676        C677   1.394       .  A
C676        H681   1.083       .  S
C677        C678   1.406       .  A
C677        H682   1.083       .  S
C678        C679   1.404       .  A
C679        C680   1.402       .  A
C679        H683   1.083       .  S
C680        H684   1.083       .  S
C685        C686   1.409       .  A
C685        C690   1.401       .  A
C685        H695   1.080       .  S
C686        C691   1.502       .  S
C686        C687   1.411       .  A
C687        C688   1.403       .  A
C687        H692   1.083       .  S
C688        C689   1.404       .  A
C688        H693   1.082       .  S
C689        C690   1.406       .  A
C690        H694   1.084       .  S
C691        C696   1.412       .  A
C691        C700   1.408       .  A
C696        C697   1.405       .  A
C696        H701   1.083       .  S
C697        C698   1.405       .  A
C697        H702   1.082       .  S
C698        C699   1.406       .  A
C699        C700   1.399       .  A
C699        H703   1.084       .  S
C700        H704   1.080       .  S
C705        C706   1.408       .  A
C705        C710   1.404       .  A
C705        H715   1.083       .  S
C706        C711   1.484       .  S
C706        C707   1.401       .  A
C707        C708   1.396       .  A
C707        H712   1.083       .  S
C708        C709   1.408       .  A
C708        H713   1.083       .  S
C709        C710   1.405       .  A
C710        H714   1.083       .  S
C711        C716   1.402       .  A
C711        C720   1.407       .  A
C716        C717   1.397       .  A
C716        H721   1.083       .  S
C717        C718   1.406       .  A
C717        H722   1.083       .  S
C718        C719   1.404       .  A
C719        C720   1.403       .  A
C719        H723   1.083       .  S
C720        H724   1.083       .  S
C725        C726   1.408       .  A
C725        C730   1.397       .  A
C725        H735   1.084       .  S
C726        C731   1.488   1_554  S
C726        C727   1.406       .  A
C727        C728   1.397       .  A
C727        H732   1.081   1_554  S
C728        C729   1.405       .  A
C728        H733   1.084       .  S
C729        C730   1.403       .  A
C730        H734   1.082       .  S
C731        C736   1.406   1_556  A
C731        C740   1.408       .  A
C736        C737   1.394   1_554  A
C736        H741   1.081       .  S
C737        C738   1.403       .  A
C737        H742   1.084       .  S
C738        C739   1.404       .  A
C739        C740   1.400       .  A
C739        H743   1.082       .  S
C740        H744   1.084       .  S
C745        C746   1.407   1_565  A
C745        C750   1.401       .  A
C745        H755   1.084       .  S
C746        C751   1.483       .  S
C746        C747   1.403   1_545  A
C747        C748   1.396   1_554  A
C747        H752   1.083   1_565  S
C748        C749   1.405       .  A
C748        H753   1.084       .  S
C749        C750   1.403   1_556  A
C750        H754   1.082       .  S
C751        C756   1.408       .  A
C751        C760   1.403       .  A
C756        C757   1.403       .  A
C756        H761   1.083       .  S
C757        C758   1.404       .  A
C757        H762   1.083       .  S
C758        C759   1.405       .  A
C759        C760   1.394       .  A
C759        H763   1.084       .  S
C760        H764   1.083       .  S
C765        C766   1.406       .  A
C765        C770   1.402       .  A
C765        H775   1.082       .  S
C766        C771   1.478       .  S
C766        C767   1.402       .  A
C767        C768   1.397       .  A
C767        H772   1.085       .  S
C768        C769   1.406       .  A
C768        H773   1.083       .  S
C769        C770   1.404       .  A
C770        H774   1.084       .  S
C771        C776   1.401       .  A
C771        C780   1.406       .  A
C776        C777   1.395       .  A
C776        H781   1.084       .  S
C777        C778   1.406       .  A
C777        H782   1.083       .  S
C778        C779   1.405       .  A
C779        C780   1.403       .  A
C779        H783   1.084       .  S
C780        H784   1.082       .  S
C785        C786   1.404       .  A
C785        C790   1.398       .  A
C785        H795   1.083       .  S
C786        C791   1.493   1_565  S
C786        C787   1.411       .  A
C787        C788   1.405       .  A
C787        H792   1.082       .  S
C788        C789   1.403       .  A
C788        H793   1.083       .  S
C789        C790   1.406       .  A
C790        H794   1.083       .  S
C791        C796   1.410       .  A
C791        C800   1.404       .  A
C796        C797   1.405       .  A
C796        H801   1.083       .  S
C797        C798   1.405       .  A
C797        H802   1.083       .  S
C798        C799   1.407       .  A
C799        C800   1.398       .  A
C799        H803   1.083       .  S
C800        H804   1.083   1_545  S
C805        C806   1.405       .  A
C805        C810   1.398       .  A
C805        H815   1.082       .  S
C806        C811   1.489       .  S
C806        C807   1.408       .  A
C807        C808   1.403       .  A
C807        H812   1.084       .  S
C808        C809   1.404       .  A
C808        H813   1.082       .  S
C809        C810   1.405       .  A
C810        H814   1.084       .  S
C811        C816   1.408       .  A
C811        C820   1.405       .  A
C816        C817   1.404       .  A
C816        H821   1.083       .  S
C817        C818   1.405       .  A
C817        H822   1.083       .  S
C818        C819   1.405       .  A
C819        C820   1.397       .  A
C819        H823   1.084       .  S
C820        H824   1.083       .  S
C825        C826   1.409       .  A
C825        C830   1.400       .  A
C825        H835   1.082       .  S
C826        C831   1.490       .  S
C826        C827   1.406       .  A
C827        C828   1.396       .  A
C827        H832   1.082       .  S
C828        C829   1.405       .  A
C828        H833   1.083       .  S
C829        C830   1.403       .  A
C830        H834   1.083       .  S
C831        C836   1.410       .  A
C831        C840   1.405       .  A
C836        C837   1.401       .  A
C836        H841   1.082       .  S
C837        C838   1.403       .  A
C837        H842   1.082       .  S
C838        C839   1.406       .  A
C839        C840   1.395       .  A
C839        H843   1.083       .  S
C840        H844   1.082       .  S
C845        C846   1.403       .  A
C845        C850   1.393       .  A
C845        H855   1.084       .  S
C846        C851   1.481       .  S
C846        C847   1.408       .  A
C847        C848   1.401       .  A
C847        H852   1.083       .  S
C848        C849   1.402       .  A
C848        H853   1.084       .  S
C849        C850   1.404       .  A
C850        H854   1.083       .  S
C851        C856   1.403       .  A
C851        C860   1.407       .  A
C856        C857   1.394       .  A
C856        H861   1.083       .  S
C857        C858   1.404       .  A
C857        H862   1.084       .  S
C858        C859   1.404       .  A
C859        C860   1.400       .  A
C859        H863   1.082       .  S
C860        H864   1.084       .  S
C865        C866   1.406       .  A
C865        C870   1.404       .  A
C865        H875   1.083       .  S
C866        C871   1.481       .  S
C866        C867   1.402       .  A
C867        C868   1.393       .  A
C867        H872   1.083       .  S
C868        C869   1.406       .  A
C868        H873   1.083       .  S
C869        C870   1.405       .  A
C870        H874   1.083       .  S
C871        C876   1.406   1_655  A
C871        C880   1.402   1_655  A
C876        C877   1.403       .  A
C876        H881   1.083       .  S
C877        C878   1.405       .  A
C877        H882   1.083       .  S
C878        C879   1.406       .  A
C879        C880   1.393       .  A
C879        H883   1.083       .  S
C880        H884   1.083   1_455  S
C885        C886   1.403       .  A
C885        C890   1.396       .  A
C885        H895   1.084       .  S
C886        C891   1.484       .  S
C886        C887   1.408       .  A
C887        C888   1.403       .  A
C887        H892   1.083       .  S
C888        C889   1.404       .  A
C888        H893   1.084       .  S
C889        C890   1.405       .  A
C890        H894   1.083       .  S
C891        C896   1.409       .  A
C891        C900   1.402       .  A
C896        C897   1.405       .  A
C896        H901   1.083       .  S
C897        C898   1.405   1_655  A
C897        H902   1.083   1_655  S
C898        C899   1.405   1_455  A
C899        C900   1.394       .  A
C899        H903   1.083       .  S
C900        H904   1.083       .  S
C905        C906   1.410       .  A
C905        C910   1.399       .  A
C905        H915   1.082       .  S
C906        C911   1.495       .  S
C906        C907   1.408       .  A
C907        C908   1.397       .  A
C907        H912   1.081       .  S
C908        C909   1.404       .  A
C908        H913   1.083       .  S
C909        C910   1.404       .  A
C910        H914   1.082       .  S
C911        C916   1.409       .  A
C911        C920   1.410       .  A
C916        C917   1.397       .  A
C916        H921   1.081       .  S
C917        C918   1.403       .  A
C917        H922   1.084       .  S
C918        C919   1.401       .  A
C919        C920   1.398       .  A
C919        H923   1.083       .  S
C920        H924   1.082       .  S
C925        C926   1.403       .  A
C925        C930   1.396       .  A
C925        H935   1.083       .  S
C926        C931   1.488       .  S
C926        C927   1.409       .  A
C927        C928   1.403       .  A
C927        H932   1.082       .  S
C928        C929   1.404       .  A
C928        H933   1.083       .  S
C929        C930   1.407       .  A
C930        H934   1.082       .  S
C931        C936   1.409       .  A
C931        C940   1.404       .  A
C936        C937   1.403       .  A
C936        H941   1.082       .  S
C937        C938   1.404       .  A
C937        H942   1.083       .  S
C938        C939   1.406       .  A
C939        C940   1.397       .  A
C939        H943   1.083       .  S
C940        H944   1.083       .  S
C945        C946   1.403       .  A
C945        C950   1.393       .  A
C945        H955   1.083       .  S
C946        C951   1.480       .  S
C946        C947   1.406       .  A
C947        C948   1.401       .  A
C947        H952   1.084       .  S
C948        C949   1.405       .  A
C948        H953   1.082       .  S
C949        C950   1.403       .  A
C950        H954   1.084       .  S
C951        C956   1.403       .  A
C951        C960   1.407       .  A
C956        C957   1.395       .  A
C956        H961   1.083       .  S
C957        C958   1.405       .  A
C957        H962   1.084       .  S
C958        C959   1.402       .  A
C959        C960   1.399       .  A
C959        H963   1.083       .  S
C960        H964   1.083       .  S
C965        C966   1.408       .  A
C965        C970   1.398       .  A
C965        H975   1.083       .  S
C966        C971   1.488       .  S
C966        C967   1.406       .  A
C967        C968   1.397       .  A
C967        H972   1.082       .  S
C968        C969   1.405       .  A
C968        H973   1.084       .  S
C969        C970   1.403       .  A
C970        H974   1.083       .  S
C971        C976   1.406       .  A
C971        C980   1.409       .  A
C976        C977   1.396       .  A
C976        H981   1.082       .  S
C977        C978   1.404       .  A
C977        H982   1.084       .  S
C978        C979   1.402       .  A
C979        C980   1.399       .  A
C979        H983   1.082       .  S
C980        H984   1.083       .  S
C985        C986   1.407       .  A
C985        C990   1.403       .  A
C985        H995   1.083       .  S
C986        C991   1.478       .  S
C986        C987   1.401       .  A
C987        C988   1.393       .  A
C987        H992   1.083       .  S
C988        C989   1.405       .  A
C988        H993   1.084       .  S
C989        C990   1.404       .  A
C990        H994   1.083       .  S
C991        C996   1.402       .  A
C991       C1000   1.406       .  A
C996        C997   1.395       .  A
C996       H1001   1.083       .  S
C997        C998   1.405       .  A
C997       H1002   1.084       .  S
C998        C999   1.404       .  A
C999       C1000   1.400       .  A
C999       H1003   1.083       .  S
C1000      H1004   1.084       .  S
C1005      C1006   1.404       .  A
C1005      C1010   1.397   1_455  A
C1005      H1015   1.083       .  S
C1006      C1011   1.484       .  S
C1006      C1007   1.407   1_455  A
C1007      C1008   1.400       .  A
C1007      H1012   1.083       .  S
C1008      C1009   1.404       .  A
C1008      H1013   1.083       .  S
C1009      C1010   1.405       .  A
C1010      H1014   1.083       .  S
C1011      C1016   1.404       .  A
C1011      C1020   1.408       .  A
C1016      C1017   1.395       .  A
C1016      H1021   1.084       .  S
C1017      C1018   1.404       .  A
C1017      H1022   1.083       .  S
C1018      C1019   1.404       .  A
C1019      C1020   1.402       .  A
C1019      H1023   1.084       .  S
C1020      H1024   1.083       .  S
C1025      C1026   1.403       .  A
C1025      C1030   1.396       .  A
C1025      H1035   1.084       .  S
C1026      C1031   1.484       .  S
C1026      C1027   1.406       .  A
C1027      C1028   1.405       .  A
C1027      H1032   1.083       .  S
C1028      C1029   1.406       .  A
C1028      H1033   1.083       .  S
C1029      C1030   1.406       .  A
C1030      H1034   1.083       .  S
C1031      C1036   1.402       .  A
C1031      C1040   1.407       .  A
C1036      C1037   1.395       .  A
C1036      H1041   1.083       .  S
C1037      C1038   1.408       .  A
C1037      H1042   1.083       .  S
C1038      C1039   1.406       .  A
C1039      C1040   1.406       .  A
C1039      H1043   1.083       .  S
C1040      H1044   1.083       .  S
C1045      C1046   1.406       .  A
C1045      C1050   1.400       .  A
C1045      H1055   1.084       .  S
C1046      C1051   1.481       .  S
C1046      C1047   1.403       .  A
C1047      C1048   1.397       .  A
C1047      H1052   1.083       .  S
C1048      C1049   1.405       .  A
C1048      H1053   1.084       .  S
C1049      C1050   1.403       .  A
C1050      H1054   1.083       .  S
C1051      C1056   1.402       .  A
C1051      C1060   1.406       .  A
C1056      C1057   1.395       .  A
C1056      H1061   1.084       .  S
C1057      C1058   1.406       .  A
C1057      H1062   1.083       .  S
C1058      C1059   1.405       .  A
C1059      C1060   1.403       .  A
C1059      H1063   1.083       .  S
C1060      H1064   1.083       .  S
C1065      C1066   1.405       .  A
C1065      C1070   1.397       .  A
C1065      H1075   1.081       .  S
C1066      C1071   1.489       .  S
C1066      C1067   1.409       .  A
C1067      C1068   1.398       .  A
C1067      H1072   1.083       .  S
C1068      C1069   1.403       .  A
C1068      H1073   1.082       .  S
C1069      C1070   1.406       .  A
C1070      H1074   1.084       .  S
C1071      C1076   1.409       .  A
C1071      C1080   1.405       .  A
C1076      C1077   1.401       .  A
C1076      H1081   1.083       .  S
C1077      C1078   1.403       .  A
C1077      H1082   1.082       .  S
C1078      C1079   1.403       .  A
C1079      C1080   1.394       .  A
C1079      H1083   1.084       .  S
C1080      H1084   1.082       .  S
C1085      C1086   1.407       .  A
C1085      C1090   1.402       .  A
C1085      H1095   1.083       .  S
C1086      C1091   1.485       .  S
C1086      C1087   1.403       .  A
C1087      C1088   1.397       .  A
C1087      H1092   1.083       .  S
C1088      C1089   1.406       .  A
C1088      H1093   1.083       .  S
C1089      C1090   1.405       .  A
C1090      H1094   1.083       .  S
C1091      C1096   1.403   1_655  A
C1091      C1100   1.407   1_655  A
C1096      C1097   1.397       .  A
C1096      H1101   1.083   1_455  S
C1097      C1098   1.406       .  A
C1097      H1102   1.083       .  S
C1098      C1099   1.404       .  A
C1099      C1100   1.402       .  A
C1099      H1103   1.083       .  S
C1100      H1104   1.083       .  S
C1105      C1106   1.402       .  A
C1105      C1110   1.394       .  A
C1105      H1115   1.083       .  S
C1106      C1111   1.477       .  S
C1106      C1107   1.406       .  A
C1107      C1108   1.399       .  A
C1107      H1112   1.083       .  S
C1108      C1109   1.403       .  A
C1108      H1113   1.083       .  S
C1109      C1110   1.404       .  A
C1110      H1114   1.083       .  S
C1111      C1116   1.402       .  A
C1111      C1120   1.407       .  A
C1116      C1117   1.391       .  A
C1116      H1121   1.083       .  S
C1117      C1118   1.403       .  A
C1117      H1122   1.084       .  S
C1118      C1119   1.402       .  A
C1119      C1120   1.400       .  A
C1119      H1123   1.083       .  S
C1120      H1124   1.083       .  S
C1125      C1126   1.406       .  A
C1125      C1130   1.397       .  A
C1125      H1135   1.082       .  S
C1126      C1131   1.492       .  S
C1126      C1127   1.410       .  A
C1127      C1128   1.399       .  A
C1127      H1132   1.082       .  S
C1128      C1129   1.403       .  A
C1128      H1133   1.083       .  S
C1129      C1130   1.405       .  A
C1130      H1134   1.083       .  S
C1131      C1136   1.410       .  A
C1131      C1140   1.406       .  A
C1136      C1137   1.401       .  A
C1136      H1141   1.082       .  S
C1137      C1138   1.403       .  A
C1137      H1142   1.083       .  S
C1138      C1139   1.405       .  A
C1139      C1140   1.396       .  A
C1139      H1143   1.084       .  S
C1140      H1144   1.082       .  S
C1145      C1146   1.402       .  A
C1145      C1150   1.394       .  A
C1145      H1155   1.083       .  S
C1146      C1151   1.485       .  S
C1146      C1147   1.408       .  A
C1147      C1148   1.405       .  A
C1147      H1152   1.084       .  S
C1148      C1149   1.405       .  A
C1148      H1153   1.083       .  S
C1149      C1150   1.406       .  A
C1150      H1154   1.084       .  S
C1151      C1156   1.408       .  A
C1151      C1160   1.403   1_556  A
C1156      C1157   1.403       .  A
C1156      H1161   1.084       .  S
C1157      C1158   1.404   1_566  A
C1157      H1162   1.083   1_565  S
C1158      C1159   1.405   1_545  A
C1159      C1160   1.397       .  A
C1159      H1163   1.084       .  S
C1160      H1164   1.083       .  S
C1165      C1166   1.403       .  A
C1165      C1170   1.393       .  A
C1165      H1175   1.083       .  S
C1166      C1171   1.481       .  S
C1166      C1167   1.407       .  A
C1167      C1168   1.402       .  A
C1167      H1172   1.083       .  S
C1168      C1169   1.404       .  A
C1168      H1173   1.083       .  S
C1169      C1170   1.404       .  A
C1170      H1174   1.083       .  S
C1171      C1176   1.404       .  A
C1171      C1180   1.406       .  A
C1176      C1177   1.397       .  A
C1176      H1181   1.083       .  S
C1177      C1178   1.405       .  A
C1177      H1182   1.084       .  S
C1178      C1179   1.404       .  A
C1179      C1180   1.399       .  A
C1179      H1183   1.083       .  S
C1180      H1184   1.084       .  S
C1185      C1186   1.405       .  A
C1185      C1190   1.395       .  A
C1185      H1195   1.082   1_554  S
C1186      C1191   1.490   1_554  S
C1186      C1187   1.409       .  A
C1187      C1188   1.400       .  A
C1187      H1192   1.083   1_565  S
C1188      C1189   1.404       .  A
C1188      H1193   1.082       .  S
C1189      C1190   1.405       .  A
C1190      H1194   1.083       .  S
C1191      C1196   1.409       .  A
C1191      C1200   1.407   1_565  A
C1196      C1197   1.398   1_565  A
C1196      H1201   1.082       .  S
C1197      C1198   1.402       .  A
C1197      H1202   1.083   1_545  S
C1198      C1199   1.403       .  A
C1199      C1200   1.397       .  A
C1199      H1203   1.083       .  S
C1200      H1204   1.082   1_556  S
C1205      C1206   1.406       .  A
C1205      C1210   1.400       .  A
C1205      H1215   1.084       .  S
C1206      C1211   1.478       .  S
C1206      C1207   1.401       .  A
C1207      C1208   1.394       .  A
C1207      H1212   1.083       .  S
C1208      C1209   1.407       .  A
C1208      H1213   1.084       .  S
C1209      C1210   1.404       .  A
C1210      H1214   1.082       .  S
C1211      C1216   1.407       .  A
C1211      C1220   1.401       .  A
C1216      C1217   1.402       .  A
C1216      H1221   1.083       .  S
C1217      C1218   1.404   1_565  A
C1217      H1222   1.084       .  S
C1218      C1219   1.405   1_545  A
C1219      C1220   1.392       .  A
C1219      H1223   1.083   1_565  S
C1220      H1224   1.084       .  S
C1225      C1226   1.404       .  A
C1225      C1230   1.399   1_554  A
C1225      H1235   1.082       .  S
C1226      C1231   1.485       .  S
C1226      C1227   1.407       .  A
C1227      C1228   1.402       .  A
C1227      H1232   1.084       .  S
C1228      C1229   1.404   1_554  A
C1228      H1233   1.082       .  S
C1229      C1230   1.406       .  A
C1230      H1234   1.084       .  S
C1231      C1236   1.403       .  A
C1231      C1240   1.407       .  A
C1236      C1237   1.396       .  A
C1236      H1241   1.084       .  S
C1237      C1238   1.407       .  A
C1237      H1242   1.083       .  S
C1238      C1239   1.405       .  A
C1239      C1240   1.404       .  A
C1239      H1243   1.084       .  S
C1240      H1244   1.082       .  S
C1245      C1246   1.407   1_655  A
C1245      C1250   1.403   1_556  A
C1245      H1255   1.083   1_655  S
C1246      C1251   1.484       .  S
C1246      C1247   1.403   1_556  A
C1247      C1248   1.395   1_455  A
C1247      H1252   1.083       .  S
C1248      C1249   1.405       .  A
C1248      H1253   1.083       .  S
C1249      C1250   1.405       .  A
C1250      H1254   1.083   1_554  S
C1251      C1256   1.403       .  A
C1251      C1260   1.407       .  A
C1256      C1257   1.398       .  A
C1256      H1261   1.084       .  S
C1257      C1258   1.407       .  A
C1257      H1262   1.083       .  S
C1258      C1259   1.403       .  A
C1259      C1260   1.402       .  A
C1259      H1263   1.083       .  S
C1260      H1264   1.083       .  S
C1265      C1266   1.403       .  A
C1265      C1270   1.395       .  A
C1265      H1275   1.083       .  S
C1266      C1271   1.482       .  S
C1266      C1267   1.406       .  A
C1267      C1268   1.401       .  A
C1267      H1272   1.083       .  S
C1268      C1269   1.405       .  A
C1268      H1273   1.083       .  S
C1269      C1270   1.406       .  A
C1270      H1274   1.084       .  S
C1271      C1276   1.404       .  A
C1271      C1280   1.407       .  A
C1276      C1277   1.395       .  A
C1276      H1281   1.083       .  S
C1277      C1278   1.403       .  A
C1277      H1282   1.083       .  S
C1278      C1279   1.403       .  A
C1279      C1280   1.401       .  A
C1279      H1283   1.083       .  S
C1280      H1284   1.083       .  S
C1285      C1286   1.402       .  A
C1285      C1290   1.397       .  A
C1285      H1295   1.083   1_455  S
C1286      C1291   1.483       .  S
C1286      C1287   1.407       .  A
C1287      C1288   1.402       .  A
C1287      H1292   1.083       .  S
C1288      C1289   1.404       .  A
C1288      H1293   1.083       .  S
C1289      C1290   1.407       .  A
C1290      H1294   1.083       .  S
C1291      C1296   1.401   1_455  A
C1291      C1300   1.409   1_455  A
C1296      C1297   1.394       .  A
C1296      H1301   1.084       .  S
C1297      C1298   1.406       .  A
C1297      H1302   1.083       .  S
C1298      C1299   1.405       .  A
C1299      C1300   1.405       .  A
C1299      H1303   1.083       .  S
C1300      H1304   1.084   1_655  S
C1305      C1306   1.406       .  A
C1305      C1310   1.400       .  A
C1305      H1315   1.082       .  S
C1306      C1311   1.477       .  S
C1306      C1307   1.402       .  A
C1307      C1308   1.396       .  A
C1307      H1312   1.084       .  S
C1308      C1309   1.404       .  A
C1308      H1313   1.083       .  S
C1309      C1310   1.403       .  A
C1310      H1314   1.084       .  S
C1311      C1316   1.402       .  A
C1311      C1320   1.405       .  A
C1316      C1317   1.395       .  A
C1316      H1321   1.085       .  S
C1317      C1318   1.406       .  A
C1317      H1322   1.082       .  S
C1318      C1319   1.405       .  A
C1319      C1320   1.401       .  A
C1319      H1323   1.084       .  S
C1320      H1324   1.082       .  S
C1325      C1326   1.407       .  A
C1325      C1330   1.400       .  A
C1325      H1335   1.084       .  S
C1326      C1331   1.482       .  S
C1326      C1327   1.404       .  A
C1327      C1328   1.396       .  A
C1327      H1332   1.082       .  S
C1328      C1329   1.405       .  A
C1328      H1333   1.084       .  S
C1329      C1330   1.403       .  A
C1330      H1334   1.082       .  S
C1331      C1336   1.403       .  A
C1331      C1340   1.407       .  A
C1336      C1337   1.394       .  A
C1336      H1341   1.082       .  S
C1337      C1338   1.404       .  A
C1337      H1342   1.084       .  S
C1338      C1339   1.404       .  A
C1339      C1340   1.402       .  A
C1339      H1343   1.082       .  S
C1340      H1344   1.084       .  S
C1345      C1346   1.407       .  A
C1345      C1350   1.403       .  A
C1345      H1355   1.083       .  S
C1346      C1351   1.482       .  S
C1346      C1347   1.403       .  A
C1347      C1348   1.395       .  A
C1347      H1352   1.084       .  S
C1348      C1349   1.404       .  A
C1348      H1353   1.083       .  S
C1349      C1350   1.405       .  A
C1350      H1354   1.084       .  S
C1351      C1356   1.407       .  A
C1351      C1360   1.402       .  A
C1356      C1357   1.402       .  A
C1356      H1361   1.083       .  S
C1357      C1358   1.404       .  A
C1357      H1362   1.083       .  S
C1358      C1359   1.407       .  A
C1359      C1360   1.396       .  A
C1359      H1363   1.083       .  S
C1360      H1364   1.083       .  S
C1365      C1366   1.403       .  A
C1365      C1370   1.395       .  A
C1365      H1375   1.084       .  S
C1366      C1371   1.485       .  S
C1366      C1367   1.408       .  A
C1367      C1368   1.404       .  A
C1367      H1372   1.082       .  S
C1368      C1369   1.405       .  A
C1368      H1373   1.084       .  S
C1369      C1370   1.404       .  A
C1370      H1374   1.083       .  S
C1371      C1376   1.408       .  A
C1371      C1380   1.403       .  A
C1376      C1377   1.402       .  A
C1376      H1381   1.082       .  S
C1377      C1378   1.404       .  A
C1377      H1382   1.084       .  S
C1378      C1379   1.406       .  A
C1379      C1380   1.398       .  A
C1379      H1383   1.083       .  S
C1380      H1384   1.084       .  S
C1385      C1386   1.405       .  A
C1385      C1390   1.395       .  A
C1385      H1395   1.081       .  S
C1386      C1391   1.491       .  S
C1386      C1387   1.410       .  A
C1387      C1388   1.401       .  A
C1387      H1392   1.083       .  S
C1388      C1389   1.404       .  A
C1388      H1393   1.082       .  S
C1389      C1390   1.405       .  A
C1390      H1394   1.084       .  S
C1391      C1396   1.409       .  A
C1391      C1400   1.407       .  A
C1396      C1397   1.398       .  A
C1396      H1401   1.083       .  S
C1397      C1398   1.403       .  A
C1397      H1402   1.083       .  S
C1398      C1399   1.404       .  A
C1399      C1400   1.397       .  A
C1399      H1403   1.084       .  S
C1400      H1404   1.082       .  S
C1405      C1406   1.408       .  A
C1405      C1410   1.405       .  A
C1405      H1415   1.083       .  S
C1406      C1411   1.490       .  S
C1406      C1407   1.404       .  A
C1407      C1408   1.398       .  A
C1407      H1412   1.083       .  S
C1408      C1409   1.406       .  A
C1408      H1413   1.083       .  S
C1409      C1410   1.406       .  A
C1410      H1414   1.083       .  S
C1411      C1416   1.405       .  A
C1411      C1420   1.408       .  A
C1416      C1417   1.401       .  A
C1416      H1421   1.083       .  S
C1417      C1418   1.408       .  A
C1417      H1422   1.083       .  S
C1418      C1419   1.403       .  A
C1419      C1420   1.402       .  A
C1419      H1423   1.083       .  S
C1420      H1424   1.083       .  S
C1425      C1426   1.406       .  A
C1425      C1430   1.398       .  A
C1425      H1435   1.084       .  S
C1426      C1431   1.480       .  S
C1426      C1427   1.403       .  A
C1427      C1428   1.397       .  A
C1427      H1432   1.082       .  S
C1428      C1429   1.405       .  A
C1428      H1433   1.084       .  S
C1429      C1430   1.403       .  A
C1430      H1434   1.082       .  S
C1431      C1436   1.408       .  A
C1431      C1440   1.402       .  A
C1436      C1437   1.404       .  A
C1436      H1441   1.083       .  S
C1437      C1438   1.405       .  A
C1437      H1442   1.084       .  S
C1438      C1439   1.404       .  A
C1439      C1440   1.391       .  A
C1439      H1443   1.083       .  S
C1440      H1444   1.084       .  S
C1445      C1446   1.408       .  A
C1445      C1450   1.403       .  A
C1445      H1455   1.084       .  S
C1446      C1451   1.487       .  S
C1446      C1447   1.405       .  A
C1447      C1448   1.396       .  A
C1447      H1452   1.082       .  S
C1448      C1449   1.403       .  A
C1448      H1453   1.084       .  S
C1449      C1450   1.405       .  A
C1450      H1454   1.082       .  S
C1451      C1456   1.410       .  A
C1451      C1460   1.403       .  A
C1456      C1457   1.403       .  A
C1456      H1461   1.082       .  S
C1457      C1458   1.403       .  A
C1457      H1462   1.084       .  S
C1458      C1459   1.405       .  A
C1459      C1460   1.395       .  A
C1459      H1463   1.083       .  S
C1460      H1464   1.084       .  S
C1465      C1466   1.403       .  A
C1465      C1470   1.397       .  A
C1465      H1475   1.084       .  S
C1466      C1471   1.485       .  S
C1466      C1467   1.408       .  A
C1467      C1468   1.404       .  A
C1467      H1472   1.083       .  S
C1468      C1469   1.404       .  A
C1468      H1473   1.084       .  S
C1469      C1470   1.404       .  A
C1470      H1474   1.083       .  S
C1471      C1476   1.407       .  A
C1471      C1480   1.403       .  A
C1476      C1477   1.402       .  A
C1476      H1481   1.083       .  S
C1477      C1478   1.405       .  A
C1477      H1482   1.083       .  S
C1478      C1479   1.407       .  A
C1479      C1480   1.398       .  A
C1479      H1483   1.083       .  S
C1480      H1484   1.084       .  S
C1485      C1486   1.404       .  A
C1485      C1490   1.394       .  A
C1485      H1495   1.083       .  S
C1486      C1491   1.483       .  S
C1486      C1487   1.408       .  A
C1487      C1488   1.402       .  A
C1487      H1492   1.083       .  S
C1488      C1489   1.403       .  A
C1488      H1493   1.083       .  S
C1489      C1490   1.403       .  A
C1490      H1494   1.084       .  S
C1491      C1496   1.404       .  A
C1491      C1500   1.407       .  A
C1496      C1497   1.395       .  A
C1496      H1501   1.083       .  S
C1497      C1498   1.405       .  A
C1497      H1502   1.084       .  S
C1498      C1499   1.404       .  A
C1499      C1500   1.400       .  A
C1499      H1503   1.083       .  S
C1500      H1504   1.083       .  S
C1505      C1506   1.402       .  A
C1505      C1510   1.396       .  A
C1505      H1515   1.083       .  S
C1506      C1511   1.486       .  S
C1506      C1507   1.408       .  A
C1507      C1508   1.403       .  A
C1507      H1512   1.083       .  S
C1508      C1509   1.405       .  A
C1508      H1513   1.082       .  S
C1509      C1510   1.408       .  A
C1510      H1514   1.084       .  S
C1511      C1516   1.402       .  A
C1511      C1520   1.409       .  A
C1516      C1517   1.396       .  A
C1516      H1521   1.084       .  S
C1517      C1518   1.407       .  A
C1517      H1522   1.083       .  S
C1518      C1519   1.404       .  A
C1519      C1520   1.404       .  A
C1519      H1523   1.084       .  S
C1520      H1524   1.083       .  S
C1525      C1526   1.408       .  A
C1525      C1530   1.403       .  A
C1525      H1535   1.081       .  S
C1526      C1531   1.483       .  S
C1526      C1527   1.402       .  A
C1527      C1528   1.397       .  A
C1527      H1532   1.085       .  S
C1528      C1529   1.407       .  A
C1528      H1533   1.082       .  S
C1529      C1530   1.404       .  A
C1530      H1534   1.085       .  S
C1531      C1536   1.402       .  A
C1531      C1540   1.408       .  A
C1536      C1537   1.395       .  A
C1536      H1541   1.085       .  S
C1537      C1538   1.405       .  A
C1537      H1542   1.082       .  S
C1538      C1539   1.404       .  A
C1539      C1540   1.404       .  A
C1539      H1543   1.085       .  S
C1540      H1544   1.081       .  S
C1545      C1546   1.402       .  A
C1545      C1550   1.397       .  A
C1545      H1555   1.085       .  S
C1546      C1551   1.485       .  S
C1546      C1547   1.407       .  A
C1547      C1548   1.404       .  A
C1547      H1552   1.081       .  S
C1548      C1549   1.405       .  A
C1548      H1553   1.085       .  S
C1549      C1550   1.407       .  A
C1550      H1554   1.082       .  S
C1551      C1556   1.407       .  A
C1551      C1560   1.403       .  A
C1556      C1557   1.403       .  A
C1556      H1561   1.081       .  S
C1557      C1558   1.404       .  A
C1557      H1562   1.085       .  S
C1558      C1559   1.406       .  A
C1559      C1560   1.399       .  A
C1559      H1563   1.082       .  S
C1560      H1564   1.085       .  S
C1565      C1566   1.403       .  A
C1565      C1570   1.394       .  A
C1565      H1575   1.084       .  S
C1566      C1571   1.479       .  S
C1566      C1567   1.407       .  A
C1567      C1568   1.401       .  A
C1567      H1572   1.083       .  S
C1568      C1569   1.402       .  A
C1568      H1573   1.084       .  S
C1569      C1570   1.403       .  A
C1570      H1574   1.083       .  S
C1571      C1576   1.403       .  A
C1571      C1580   1.406       .  A
C1576      C1577   1.395       .  A
C1576      H1581   1.083       .  S
C1577      C1578   1.406       .  A
C1577      H1582   1.083       .  S
C1578      C1579   1.404       .  A
C1579      C1580   1.400       .  A
C1579      H1583   1.082       .  S
C1580      H1584   1.083       .  S
C1585      C1586   1.403       .  A
C1585      C1590   1.395       .  A
C1585      H1595   1.083       .  S
C1586      C1591   1.485       .  S
C1586      C1587   1.408       .  A
C1587      C1588   1.403       .  A
C1587      H1592   1.083       .  S
C1588      C1589   1.405       .  A
C1588      H1593   1.083       .  S
C1589      C1590   1.405       .  A
C1590      H1594   1.084       .  S
C1591      C1596   1.409       .  A
C1591      C1600   1.403       .  A
C1596      C1597   1.404       .  A
C1596      H1601   1.083       .  S
C1597      C1598   1.403       .  A
C1597      H1602   1.083       .  S
C1598      C1599   1.404       .  A
C1599      C1600   1.395       .  A
C1599      H1603   1.084       .  S
C1600      H1604   1.083       .  S
C1605      C1606   1.408       .  A
C1605      C1610   1.404       .  A
C1605      H1615   1.083       .  S
C1606      C1611   1.488       .  S
C1606      C1607   1.404       .  A
C1607      C1608   1.398       .  A
C1607      H1612   1.083       .  S
C1608      C1609   1.407       .  A
C1608      H1613   1.083   1_565  S
C1609      C1610   1.406       .  A
C1610      H1614   1.083       .  S
C1611      C1616   1.403       .  A
C1611      C1620   1.408       .  A
C1616      C1617   1.398       .  A
C1616      H1621   1.083       .  S
C1617      C1618   1.407       .  A
C1617      H1622   1.083       .  S
C1618      C1619   1.405       .  A
C1619      C1620   1.404       .  A
C1619      H1623   1.083       .  S
C1620      H1624   1.083       .  S
C1625      C1626   1.404       .  A
C1625      C1630   1.400       .  A
C1625      H1635   1.083       .  S
C1626      C1631   1.483       .  S
C1626      C1627   1.405       .  A
C1627      C1628   1.401       .  A
C1627      H1632   1.083       .  S
C1628      C1629   1.406       .  A
C1628      H1633   1.083   1_565  S
C1629      C1630   1.407       .  A
C1630      H1634   1.083       .  S
C1631      C1636   1.402       .  A
C1631      C1640   1.408       .  A
C1636      C1637   1.394       .  A
C1636      H1641   1.084       .  S
C1637      C1638   1.404       .  A
C1637      H1642   1.083       .  S
C1638      C1639   1.404       .  A
C1639      C1640   1.404       .  A
C1639      H1643   1.083       .  S
C1640      H1644   1.083       .  S
C1645      C1646   1.408       .  A
C1645      C1650   1.400       .  A
C1645      H1655   1.081       .  S
C1646      C1651   1.501       .  S
C1646      C1647   1.411       .  A
C1647      C1648   1.405       .  A
C1647      H1652   1.083       .  S
C1648      C1649   1.407       .  A
C1648      H1653   1.082       .  S
C1649      C1650   1.404       .  A
C1650      H1654   1.084       .  S
C1651      C1656   1.411       .  A
C1651      C1660   1.408       .  A
C1656      C1657   1.404       .  A
C1656      H1661   1.083       .  S
C1657      C1658   1.405       .  A
C1657      H1662   1.082       .  S
C1658      C1659   1.407       .  A
C1659      C1660   1.402       .  A
C1659      H1663   1.084       .  S
C1660      H1664   1.081       .  S
C1665      C1666   1.401       .  A
C1665      C1670   1.393       .  A
C1665      H1675   1.083       .  S
C1666      C1671   1.481       .  S
C1666      C1667   1.407       .  A
C1667      C1668   1.405       .  A
C1667      H1672   1.084       .  S
C1668      C1669   1.406       .  A
C1668      H1673   1.082       .  S
C1669      C1670   1.405       .  A
C1670      H1674   1.084       .  S
C1671      C1676   1.406       .  A
C1671      C1680   1.403       .  A
C1676      C1677   1.400       .  A
C1676      H1681   1.084       .  S
C1677      C1678   1.403       .  A
C1677      H1682   1.082       .  S
C1678      C1679   1.405       .  A
C1679      C1680   1.398       .  A
C1679      H1683   1.084       .  S
C1680      H1684   1.083       .  S
C1685      C1686   1.406       .  A
C1685      C1690   1.399       .  A
C1685      H1695   1.083       .  S
C1686      C1691   1.482       .  S
C1686      C1687   1.404       .  A
C1687      C1688   1.395       .  A
C1687      H1692   1.083       .  S
C1688      C1689   1.404       .  A
C1688      H1693   1.083       .  S
C1689      C1690   1.404       .  A
C1690      H1694   1.083       .  S
C1691      C1696   1.407       .  A
C1691      C1700   1.404       .  A
C1696      C1697   1.399       .  A
C1696      H1701   1.083       .  S
C1697      C1698   1.402       .  A
C1697      H1702   1.084       .  S
C1698      C1699   1.404       .  A
C1699      C1700   1.396       .  A
C1699      H1703   1.083       .  S
C1700      H1704   1.084       .  S
C1705      C1706   1.409   1_554  A
C1705      C1710   1.398   1_554  A
C1705      H1715   1.080       .  S
C1706      C1711   1.496   1_556  S
C1706      C1707   1.410       .  A
C1707      C1708   1.400       .  A
C1707      H1712   1.083   1_655  S
C1708      C1709   1.404       .  A
C1708      H1713   1.082       .  S
C1709      C1710   1.404       .  A
C1710      H1714   1.085       .  S
C1711      C1716   1.410       .  A
C1711      C1720   1.408   1_655  A
C1716      C1717   1.400       .  A
C1716      H1721   1.083       .  S
C1717      C1718   1.404   1_655  A
C1717      H1722   1.081       .  S
C1718      C1719   1.404       .  A
C1719      C1720   1.397       .  A
C1719      H1723   1.085       .  S
C1720      H1724   1.080   1_554  S
C1725      C1726   1.402   1_554  A
C1725      C1730   1.399       .  A
C1725      H1735   1.085       .  S
C1726      C1731   1.482       .  S
C1726      C1727   1.407       .  A
C1727      C1728   1.400       .  A
C1727      H1732   1.082       .  S
C1728      C1729   1.402   1_556  A
C1728      H1733   1.085       .  S
C1729      C1730   1.407       .  A
C1730      H1734   1.082       .  S
C1731      C1736   1.408       .  A
C1731      C1740   1.401       .  A
C1736      C1737   1.406       .  A
C1736      H1741   1.082       .  S
C1737      C1738   1.405       .  A
C1737      H1742   1.084       .  S
C1738      C1739   1.406       .  A
C1739      C1740   1.393       .  A
C1739      H1743   1.082       .  S
C1740      H1744   1.085       .  S
C1745      C1746   1.407       .  A
C1745      C1750   1.396       .  A
C1745      H1755   1.081       .  S
C1746      C1751   1.497       .  S
C1746      C1747   1.410       .  A
C1747      C1748   1.403       .  A
C1747      H1752   1.083       .  S
C1748      C1749   1.405       .  A
C1748      H1753   1.082       .  S
C1749      C1750   1.405       .  A
C1750      H1754   1.084       .  S
C1751      C1756   1.409       .  A
C1751      C1760   1.409       .  A
C1756      C1757   1.399       .  A
C1756      H1761   1.083       .  S
C1757      C1758   1.403       .  A
C1757      H1762   1.082       .  S
C1758      C1759   1.406       .  A
C1759      C1760   1.401       .  A
C1759      H1763   1.084       .  S
C1760      H1764   1.081       .  S
C1765      C1766   1.403       .  A
C1765      C1770   1.399       .  A
C1765      H1775   1.083       .  S
C1766      C1771   1.489       .  S
C1766      C1767   1.409       .  A
C1767      C1768   1.404       .  A
C1767      H1772   1.083       .  S
C1768      C1769   1.404       .  A
C1768      H1773   1.083       .  S
C1769      C1770   1.407       .  A
C1770      H1774   1.084       .  S
C1771      C1776   1.409       .  A
C1771      C1780   1.403       .  A
C1776      C1777   1.406       .  A
C1776      H1781   1.083       .  S
C1777      C1778   1.406   1_655  A
C1777      H1782   1.083       .  S
C1778      C1779   1.407       .  A
C1779      C1780   1.396   1_455  A
C1779      H1783   1.083       .  S
C1780      H1784   1.083       .  S
C1785      C1786   1.402       .  A
C1785      C1790   1.394       .  A
C1785      H1795   1.084       .  S
C1786      C1791   1.478       .  S
C1786      C1787   1.406       .  A
C1787      C1788   1.402       .  A
C1787      H1792   1.082       .  S
C1788      C1789   1.405       .  A
C1788      H1793   1.084       .  S
C1789      C1790   1.405       .  A
C1790      H1794   1.083       .  S
C1791      C1796   1.403       .  A
C1791      C1800   1.405       .  A
C1796      C1797   1.397   1_554  A
C1796      H1801   1.082       .  S
C1797      C1798   1.405   1_655  A
C1797      H1802   1.084       .  S
C1798      C1799   1.404   1_456  A
C1799      C1800   1.399       .  A
C1799      H1803   1.082   1_655  S
C1800      H1804   1.084       .  S
C1805      C1806   1.404       .  A
C1805      C1810   1.395       .  A
C1805      H1815   1.083       .  S
C1806      C1811   1.487       .  S
C1806      C1807   1.410       .  A
C1807      C1808   1.403       .  A
C1807      H1812   1.083       .  S
C1808      C1809   1.401       .  A
C1808      H1813   1.084       .  S
C1809      C1810   1.404       .  A
C1810      H1814   1.084       .  S
C1811      C1816   1.405       .  A
C1811      C1820   1.408       .  A
C1816      C1817   1.397       .  A
C1816      H1821   1.083       .  S
C1817      C1818   1.405       .  A
C1817      H1822   1.083       .  S
C1818      C1819   1.406       .  A
C1819      C1820   1.402       .  A
C1819      H1823   1.083       .  S
C1820      H1824   1.083       .  S
C1825      C1826   1.407       .  A
C1825      C1830   1.402       .  A
C1825      H1835   1.083       .  S
C1826      C1831   1.482       .  S
C1826      C1827   1.403       .  A
C1827      C1828   1.395       .  A
C1827      H1832   1.083       .  S
C1828      C1829   1.405       .  A
C1828      H1833   1.083       .  S
C1829      C1830   1.405       .  A
C1830      H1834   1.083       .  S
C1831      C1836   1.404       .  A
C1831      C1840   1.407       .  A
C1836      C1837   1.396       .  A
C1836      H1841   1.083       .  S
C1837      C1838   1.403       .  A
C1837      H1842   1.084       .  S
C1838      C1839   1.403       .  A
C1839      C1840   1.400       .  A
C1839      H1843   1.083       .  S
C1840      H1844   1.083       .  S
C1845      C1846   1.408   1_545  A
C1845      C1850   1.400       .  A
C1845      H1855   1.081       .  S
C1846      C1851   1.492       .  S
C1846      C1847   1.409       .  A
C1847      C1848   1.396   1_565  A
C1847      H1852   1.083       .  S
C1848      C1849   1.402       .  A
C1848      H1853   1.082       .  S
C1849      C1850   1.405       .  A
C1850      H1854   1.084       .  S
C1851      C1856   1.405       .  A
C1851      C1860   1.410       .  A
C1856      C1857   1.392       .  A
C1856      H1861   1.081       .  S
C1857      C1858   1.404       .  A
C1857      H1862   1.084       .  S
C1858      C1859   1.405       .  A
C1859      C1860   1.403       .  A
C1859      H1863   1.082       .  S
C1860      H1864   1.083   1_565  S
C1865      C1866   1.407       .  A
C1865      C1870   1.399       .  A
C1865      H1875   1.083       .  S
C1866      C1871   1.480       .  S
C1866      C1867   1.404       .  A
C1867      C1868   1.393       .  A
C1867      H1872   1.083       .  S
C1868      C1869   1.403       .  A
C1868      H1873   1.084       .  S
C1869      C1870   1.402       .  A
C1870      H1874   1.083       .  S
C1871      C1876   1.406       .  A
C1871      C1880   1.404       .  A
C1876      C1877   1.399       .  A
C1876      H1881   1.083       .  S
C1877      C1878   1.404       .  A
C1877      H1882   1.083       .  S
C1878      C1879   1.403       .  A
C1879      C1880   1.394       .  A
C1879      H1883   1.084       .  S
C1880      H1884   1.083       .  S
C1885      C1886   1.407   1_545  A
C1885      C1890   1.406   1_545  A
C1885      H1895   1.082       .  S
C1886      C1891   1.481   1_565  S
C1886      C1887   1.401       .  A
C1887      C1888   1.391       .  A
C1887      H1892   1.084       .  S
C1888      C1889   1.406       .  A
C1888      H1893   1.082       .  S
C1889      C1890   1.406       .  A
C1890      H1894   1.084       .  S
C1891      C1896   1.407       .  A
C1891      C1900   1.401   1_545  A
C1896      C1897   1.406       .  A
C1896      H1901   1.083       .  S
C1897      C1898   1.406       .  A
C1897      H1902   1.083       .  S
C1898      C1899   1.405       .  A
C1899      C1900   1.391   1_545  A
C1899      H1903   1.083   1_545  S
C1900      H1904   1.083       .  S
C1905      C1906   1.410   1_565  A
C1905      C1910   1.401       .  A
C1905      H1915   1.081   1_565  S
C1906      C1911   1.489       .  S
C1906      C1907   1.403   1_545  A
C1907      C1908   1.399       .  A
C1907      H1912   1.085       .  S
C1908      C1909   1.406       .  A
C1908      H1913   1.082       .  S
C1909      C1910   1.401       .  A
C1910      H1914   1.085       .  S
C1911      C1916   1.402       .  A
C1911      C1920   1.411       .  A
C1916      C1917   1.393       .  A
C1916      H1921   1.085       .  S
C1917      C1918   1.405       .  A
C1917      H1922   1.081       .  S
C1918      C1919   1.405       .  A
C1919      C1920   1.407       .  A
C1919      H1923   1.085       .  S
C1920      H1924   1.081       .  S
C1925      C1926   1.411       .  A
C1925      C1930   1.403       .  A
C1925      H1935   1.084       .  S
C1926      C1931   1.495       .  S
C1926      C1927   1.406       .  A
C1927      C1928   1.397       .  A
C1927      H1932   1.081       .  S
C1928      C1929   1.405       .  A
C1928      H1933   1.084       .  S
C1929      C1930   1.404       .  A
C1930      H1934   1.082       .  S
C1931      C1936   1.406       .  A
C1931      C1940   1.411       .  A
C1936      C1937   1.397       .  A
C1936      H1941   1.081       .  S
C1937      C1938   1.405       .  A
C1937      H1942   1.085       .  S
C1938      C1939   1.404       .  A
C1939      C1940   1.403       .  A
C1939      H1943   1.082       .  S
C1940      H1944   1.084       .  S
