geometry optimzed in LAMMPS
_audit_creation_date              2020-12-01 
_audit_creation_method            'lammps2cif' 
_symmetry_space_group_name_H-M    'P1' 
_symmetry_Int_Tables_number       1 
_symmetry_cell_setting            triclinic 
loop_ 
_symmetry_equiv_pos_as_xyz 
  x,y,z 
_cell_length_a                    29.11600975 
_cell_length_b                    29.334083385043932 
_cell_length_c                    29.232843120590875 
_cell_angle_alpha                 92.42566690702274 
_cell_angle_beta                  91.2649353261541 
_cell_angle_gamma                 91.96151669966872 
loop_ 
_atom_site_label 
_atom_site_type_symbol 
_atom_site_fract_x 
_atom_site_fract_y 
_atom_site_fract_z 
_atom_site_charge 
C1          C  0.82341912  0.83072389  0.03673581     0.79300
N2          N  0.83686666  0.87539998  0.03548643    -0.79000
C3          C  0.84738120  0.89439643  0.99583828     0.81800
N4          N  0.84704531  0.86839950  0.95718910    -0.78900
C5          C  0.83488059  0.82346169  0.95585431     0.81900
N6          N  0.82166223  0.80383304  0.99618695    -0.80600
C7          C  0.78990687  0.27869876  0.03869476     0.79300
N8          N  0.78780304  0.25104791  0.99842542    -0.79000
C9          C  0.79014213  0.27149677  0.95621309     0.81800
N10         N  0.79428318  0.31727675  0.95590907    -0.78900
C11         C  0.79975622  0.34409265  0.99451468     0.81900
N12         N  0.79586902  0.32437245  0.03532677    -0.80600
C13         C  0.28938349  0.86205119  0.03461645     0.79300
N14         N  0.27941453  0.90653358  0.03681098    -0.79000
C15         C  0.27933692  0.93167990  0.99962001     0.81800
N16         N  0.28852123  0.91163313  0.95829933    -0.78900
C17         C  0.30090486  0.86720731  0.95452389     0.81900
N18         N  0.30071832  0.84166812  0.99314900    -0.80600
C19         C  0.84494048  0.07491422  0.75107599     0.79300
N20         N  0.82391675  0.03202106  0.74805317    -0.79000
C21         C  0.85014456  0.99484726  0.73718008     0.81800
N22         N  0.89600134  0.00111102  0.73119227    -0.78900
C23         C  0.91592314  0.04347750  0.73304832     0.81900
N24         N  0.88987808  0.07946951  0.74245131    -0.80600
C25         C  0.01001847  0.27188134  0.74921462     0.79300
N26         N  0.01171002  0.31696880  0.76100464    -0.79000
C27         C  0.05118162  0.34260313  0.76063844     0.81800
N28         N  0.08994464  0.32241740  0.74704806    -0.78900
C29         C  0.09135479  0.27733723  0.73619196     0.81900
N30         N  0.05061532  0.25093997  0.73695081    -0.80600
C31         C  0.01354186  0.85195810  0.75347483     0.79300
N32         N  0.01629712  0.89691263  0.76654597    -0.79000
C33         C  0.05618897  0.92168828  0.76467099     0.81800
N34         N  0.09442694  0.90099603  0.75139592    -0.78900
C35         C  0.09407035  0.85607875  0.73899412     0.81900
N36         N  0.05316960  0.83071611  0.74007220    -0.80600
C37         C  0.28086324  0.08567892  0.79890783     0.79300
N38         N  0.29288357  0.09149525  0.84326231    -0.79000
C39         C  0.30090388  0.05622022  0.86977933     0.81800
N40         N  0.29544885  0.01294873  0.85129102    -0.78900
C41         C  0.28553512  0.00565724  0.80570236     0.81900
N42         N  0.27902187  0.04248671  0.77882119    -0.80600
C43         C  0.98875505  0.82129400  0.21421510     0.79300
N44         N  0.03005279  0.79857234  0.21614984    -0.79000
C45         C  0.07100855  0.82301395  0.20852595     0.81800
N46         N  0.06889652  0.86814558  0.19888803    -0.78900
C47         C  0.02921882  0.89060819  0.19834258     0.81900
N48         N  0.99011350  0.86675944  0.20567601    -0.80600
C49         C  0.79612165  0.08331357  0.19420349     0.79300
N50         N  0.79388616  0.08314980  0.14842686    -0.79000
C51         C  0.78460200  0.04482504  0.12245798     0.81800
N52         N  0.77754242  0.00481710  0.14278738    -0.78900
C53         C  0.77750296  0.00307957  0.18907499     0.81900
N54         N  0.78716666  0.04277170  0.21559949    -0.80600
C55         C  0.00501630  0.28168745  0.25359696     0.79300
N56         N  0.04655969  0.25945536  0.25031538    -0.79000
C57         C  0.08733598  0.28549446  0.24562754     0.81800
N58         N  0.08486027  0.33139674  0.24307932    -0.78900
C59         C  0.04457449  0.35295716  0.24600867     0.81900
N60         N  0.00611654  0.32759620  0.25366857    -0.80600
Zr61       Zr  0.35257714  0.36608852  0.30035737     2.17500
O62         O  0.40100906  0.40862835  0.35700182    -0.52200
O63         O  0.33479315  0.44820025  0.28702119    -0.75400
O64         O  0.43472679  0.37109969  0.27123479    -0.82200
O65         O  0.25866464  0.32331592  0.39072603    -0.84000
O66         O  0.44148785  0.33497777  0.20120205    -0.79600
O67         O  0.33274813  0.34812093  0.38094692    -0.91200
O68         O  0.26329589  0.45910250  0.26033580    -0.77200
O69         O  0.33904062  0.37675743  0.22150622    -0.86700
O70         O  0.27154599  0.37514569  0.29427483    -0.86400
O71         O  0.37762117  0.29742090  0.26038300    -0.73100
O72         O  0.31532838  0.29493022  0.32027150    -0.85300
Zr73       Zr  0.24347545  0.25355242  0.18776764     2.26400
Zr74       Zr  0.36368234  0.30868936  0.18034804     2.06300
Zr75       Zr  0.23357830  0.30361764  0.31159790     2.10000
Zr76       Zr  0.25823196  0.38815418  0.21543341     1.78800
O77         O  0.20961089  0.24532873  0.36390433    -0.94100
O78         O  0.29623857  0.42816849  0.15475784    -0.41900
O79         O  0.21877277  0.31853687  0.23262422    -0.78500
O80         O  0.28380769  0.32404943  0.16947556    -0.97200
O81         O  0.32338303  0.23951215  0.19816208    -0.90500
O82         O  0.25641817  0.23749761  0.26695837    -0.93300
C83         C  0.30234147  0.47490008  0.27439251     1.00400
C84         C  0.29935392  0.33380743  0.40638502     1.13400
C85         C  0.45879595  0.35778661  0.23603541     1.04100
O86         O  0.39054383  0.36435880  0.12651305    -0.95500
O87         O  0.34344563  0.27585078  0.10374148    -0.91200
O88         O  0.26677472  0.25900169  0.10508849    -0.84400
C89         C  0.30447964  0.26736857  0.08321811     1.10800
O90         O  0.38625639  0.18049820  0.32261571    -0.97500
Zr91       Zr  0.33716945  0.22784778  0.27717635     1.88900
O92         O  0.24873206  0.17119112  0.20142344    -0.74100
O93         O  0.41645021  0.24987362  0.15655837    -0.53400
O94         O  0.41619678  0.21140983  0.25808478    -0.98000
O95         O  0.31426404  0.20082066  0.35145411    -0.55300
O96         O  0.31448467  0.15523239  0.23958270    -0.74600
C97         C  0.27666781  0.14306865  0.21924805     0.97700
O98         O  0.19958839  0.22323030  0.12189760    -0.63400
O99         O  0.18073816  0.36144482  0.33772012    -0.58200
O100        O  0.15984939  0.26440025  0.20993263    -0.94900
O101        O  0.15627925  0.27403820  0.28739859    -0.93400
O102        O  0.21276841  0.44716590  0.18110484    -0.93700
O103        O  0.17636793  0.37076294  0.20724343    -0.92500
C104        C  0.13656353  0.26957921  0.24753625     1.16600
H105        H  0.26152756  0.39901634  0.31514208     0.32500
H106        H  0.27998976  0.33230959  0.13825806     0.43400
H107        H  0.23865688  0.21115614  0.27617646     0.36900
H108        H  0.40948019  0.29255353  0.26738163     0.33400
H109        H  0.31458024  0.45330752  0.17075581     0.25200
H110        H  0.43364068  0.26316044  0.13117084     0.31100
H111        H  0.41330161  0.18712669  0.23349963     0.37000
H112        H  0.19297876  0.45936627  0.20554061     0.31500
H113        H  0.15522174  0.36018058  0.31472512     0.30300
H114        H  0.18459489  0.25912461  0.38158151     0.32000
H115        H  0.28955605  0.17742855  0.34421008     0.31000
H116        H  0.16354452  0.38512612  0.23523259     0.35000
H117        H  0.20133010  0.18979476  0.12412444     0.27700
H118        H  0.40576329  0.43853142  0.34309268     0.32000
H119        H  0.37820619  0.14862302  0.31203463     0.34800
H120        H  0.16697679  0.34910286  0.36549276     0.27400
H121        H  0.16770393  0.23118086  0.12875621     0.40300
H122        H  0.40035720  0.34616963  0.09938452     0.30300
H123        H  0.31930197  0.40731055  0.14245069     0.38000
H124        H  0.29860121  0.22624599  0.36710997     0.29800
H125        H  0.43955230  0.24878244  0.18177332     0.29900
H126        H  0.43137111  0.39467936  0.35530516     0.30100
C127        C  0.25854474  0.09609598  0.22503207     0.79300
N128        N  0.21467369  0.09409801  0.23835720    -0.79000
C129        C  0.19226285  0.05438713  0.24546002     0.81800
N130        N  0.21434250  0.01521966  0.23798835    -0.78900
C131        C  0.25905374  0.01523510  0.22536148     0.81900
N132        N  0.28211212  0.05629990  0.21893318    -0.80600
Zr133      Zr  0.33346779  0.76229812  0.29502645     2.17500
O134        O  0.38457406  0.70799488  0.32956412    -0.52200
O135        O  0.31736200  0.76754196  0.37697754    -0.75400
O136        O  0.41373450  0.79223967  0.30043562    -0.82200
O137        O  0.24835166  0.66057463  0.24742260    -0.84000
O138        O  0.42561126  0.86235708  0.27175185    -0.79600
O139        O  0.31912989  0.68100872  0.27744342    -0.91200
O140        O  0.26113490  0.81395912  0.39951659    -0.77200
O141        O  0.32156471  0.84062142  0.31261132    -0.86700
O142        O  0.25254280  0.76367105  0.30673768    -0.86400
O143        O  0.35933560  0.80081336  0.22866852    -0.73100
O144        O  0.29433671  0.73387078  0.22599205    -0.85300
Zr145      Zr  0.23087293  0.85754292  0.18801378     2.26400
Zr146      Zr  0.34712016  0.88067084  0.24620075     2.06300
Zr147      Zr  0.21293273  0.73715157  0.23629999     2.10000
Zr148      Zr  0.24030059  0.84217189  0.32456616     1.78800
O149        O  0.18242500  0.68931041  0.17180387    -0.94100
O150        O  0.25971616  0.90768023  0.37625521    -0.41900
O151        O  0.20416373  0.81704130  0.25293880    -0.78500
O152        O  0.26638072  0.88352878  0.26069247    -0.97200
O153        O  0.31050253  0.85161000  0.17594051    -0.90500
O154        O  0.23870268  0.77806479  0.17046432    -0.93300
C155        C  0.29146681  0.78482147  0.40796856     1.00400
C156        C  0.28916568  0.65052396  0.26200897     1.13400
C157        C  0.44010895  0.82680118  0.29117623     1.04100
O158        O  0.37532578  0.93784315  0.30373480    -0.95500
O159        O  0.31678931  0.95728978  0.23030837    -0.91200
O160        O  0.24561328  0.93982864  0.19954752    -0.84400
C161        C  0.27683297  0.96882496  0.21546802     1.10800
O162        O  0.36581057  0.70386652  0.16110073    -0.97500
Zr163      Zr  0.31966569  0.77159489  0.16020632     1.88900
O164        O  0.25645396  0.85676369  0.10749639    -0.74100
O165        O  0.39639551  0.90703276  0.18563281    -0.53400
O166        O  0.39542787  0.78556214  0.12885433    -0.98000
O167        O  0.28325938  0.71380822  0.10765065    -0.55300
O168        O  0.30993425  0.80588700  0.08740451    -0.74600
C169        C  0.28422888  0.83873491  0.07837462     0.97700
O170        O  0.17599191  0.90299627  0.14676973    -0.63400
O171        O  0.16648357  0.69945590  0.29281161    -0.58200
O172        O  0.14940927  0.83596258  0.19507143    -0.94900
O173        O  0.13281397  0.76720663  0.22450697    -0.93400
O174        O  0.16922531  0.80880138  0.35279722    -0.93700
O175        O  0.17987008  0.89781902  0.32551421    -0.92500
C176        C  0.12011026  0.80584573  0.20889245     1.16600
H177        H  0.24334420  0.74460656  0.33132124     0.32500
H178        H  0.25857295  0.91348801  0.27188969     0.43400
H179        H  0.22114036  0.76875605  0.14302670     0.36900
H180        H  0.39110579  0.79551559  0.22231499     0.33400
H181        H  0.24258938  0.90192042  0.40445839     0.25200
H182        H  0.37818760  0.92936107  0.16919916     0.31100
H183        H  0.40504349  0.81656714  0.14088593     0.37000
H184        H  0.16632788  0.82287766  0.38394118     0.31500
H185        H  0.14559253  0.72305473  0.30429183     0.30300
H186        H  0.16818706  0.66234164  0.18589320     0.32000
H187        H  0.27631206  0.68751408  0.12681688     0.31000
H188        H  0.18367475  0.91523661  0.29749438     0.35000
H189        H  0.19477415  0.92328033  0.12775586     0.27700
H190        H  0.36602356  0.69285132  0.35290390     0.32000
H191        H  0.38707081  0.70921372  0.18784218     0.34800
H192        H  0.14628834  0.67731730  0.27465883     0.27400
H193        H  0.16000985  0.88158103  0.12412966     0.40300
H194        H  0.35941829  0.92977861  0.33201581     0.30300
H195        H  0.29235613  0.90407505  0.38514789     0.38000
H196        H  0.30812311  0.70351263  0.08751540     0.29800
H197        H  0.42118831  0.92568206  0.20182568     0.29900
H198        H  0.40827141  0.72602741  0.34792662     0.30100
Zr199      Zr  0.84647510  0.24632193  0.19462919     2.17500
O200        O  0.91080350  0.24319452  0.14306870    -0.52200
O201        O  0.82674769  0.16101067  0.19441541    -0.75400
O202        O  0.93161644  0.24980355  0.22010565    -0.82200
O203        O  0.74873294  0.27792798  0.10759225    -0.84000
O204        O  0.93708101  0.27380875  0.29505927    -0.79600
O205        O  0.82126460  0.25184030  0.11109179    -0.91200
O206        O  0.78349213  0.13786639  0.25387392    -0.77200
O207        O  0.83729586  0.22591394  0.27226390    -0.80700
O208        O  0.76653437  0.22741632  0.20394466    -0.86400
O209        O  0.86653888  0.31592288  0.24036336    -0.73100
O210        O  0.80374050  0.31392655  0.17855947    -0.85300
Zr211      Zr  0.73752020  0.34379148  0.31213459     2.26400
Zr212      Zr  0.85914902  0.29289347  0.31796117     2.06300
Zr213      Zr  0.72422666  0.29300156  0.18656340     2.10000
Zr214      Zr  0.75687263  0.20983872  0.28238066     1.78800
O215        O  0.69578329  0.34733412  0.13290864    -0.94100
O216        O  0.78496977  0.17242614  0.34995156    -0.41900
O217        O  0.71452976  0.27608497  0.26554023    -0.78500
O218        O  0.77891388  0.27591299  0.32865504    -0.97200
O219        O  0.81704170  0.36056657  0.30261035    -0.90500
O220        O  0.74364051  0.36115168  0.23337950    -0.93300
C221        C  0.80454501  0.12965099  0.21690837     1.00400
C222        C  0.78552817  0.26478955  0.08806825     1.13400
C223        C  0.95586126  0.26242423  0.25701858     1.04100
O224        O  0.87676165  0.22841359  0.36441397    -0.95500
O225        O  0.84121793  0.31101914  0.39707468    -0.91200
O226        O  0.77388023  0.34832271  0.39152958    -0.84400
C227        C  0.80877282  0.33363019  0.41482949     1.10800
O228        O  0.87766006  0.40372544  0.16918799    -0.97500
Zr229      Zr  0.82176476  0.38231042  0.22547701     1.88900
O230        O  0.74733540  0.42971685  0.31845584    -0.74100
O231        O  0.91518476  0.34803942  0.35322812    -0.53400
O232        O  0.87715047  0.43399752  0.26600648    -0.98000
O233        O  0.79121021  0.42136974  0.15987405    -0.55300
O234        O  0.79178322  0.45305278  0.26055603    -0.74600
C235        C  0.76777232  0.46182026  0.29607878     0.97700
O236        O  0.67811258  0.33710970  0.36912521    -0.63400
O237        O  0.67259474  0.22963710  0.16012647    -0.58200
O238        O  0.65882511  0.35385743  0.27698978    -0.94900
O239        O  0.64767953  0.31602816  0.20744375    -0.93400
O240        O  0.69429211  0.16238187  0.24735330    -0.93700
O241        O  0.69356947  0.19935053  0.33452531    -0.92500
C242        C  0.63357767  0.34106490  0.24091929     1.16600
H243        H  0.75604034  0.20227005  0.18353935     0.32500
H244        H  0.77344165  0.26743403  0.35965577     0.43400
H245        H  0.72422548  0.38593831  0.22582173     0.36900
H246        H  0.89790091  0.32566812  0.23511136     0.33400
H247        H  0.76315859  0.14626585  0.35362665     0.25200
H248        H  0.93509281  0.32984946  0.37281628     0.31100
H249        H  0.88327195  0.42023347  0.29576078     0.37000
H250        H  0.66938342  0.18373318  0.24173945     0.31500
H251        H  0.64621282  0.24420995  0.14546240     0.30300
H252        H  0.66969191  0.33099736  0.11633922     0.32000
H253        H  0.79276865  0.45420678  0.16934205     0.31000
H254        H  0.69599590  0.22628439  0.35613574     0.35000
H255        H  0.65632363  0.31338612  0.35550950     0.27700
H256        H  0.91967232  0.27587026  0.14079731     0.32000
H257        H  0.86992961  0.38300135  0.14233830     0.34800
H258        H  0.68837313  0.21441462  0.13432231     0.27400
H259        H  0.69234352  0.32199014  0.39525308     0.40300
H260        H  0.90561466  0.21631294  0.35234220     0.30300
H261        H  0.81376078  0.15818637  0.34036423     0.38000
H262        H  0.75797473  0.41322720  0.15804531     0.29800
H263        H  0.93512143  0.35755271  0.32808929     0.29900
H264        H  0.89853667  0.23483417  0.11207892     0.30100
Zr265      Zr  0.71804392  0.74330775  0.29327466     2.17500
O266        O  0.65917460  0.68201351  0.28908223    -0.52200
O267        O  0.71510951  0.75202680  0.37923786    -0.75400
O268        O  0.74547526  0.66359625  0.29689569    -0.82200
O269        O  0.63183616  0.84415487  0.26653123    -0.84000
O270        O  0.81751233  0.65443206  0.26899426    -0.79600
O271        O  0.63914930  0.77546864  0.29901188    -0.91200
O272        O  0.77024109  0.80363269  0.40545947    -0.77200
O273        O  0.79789941  0.75289572  0.31493367    -0.86700
O274        O  0.72820453  0.82270331  0.31260989    -0.86400
O275        O  0.76387184  0.72167811  0.22767942    -0.73100
O276        O  0.69935857  0.78305312  0.22486472    -0.85300
Zr277      Zr  0.83138634  0.85092787  0.20207257     2.26400
Zr278      Zr  0.84463066  0.73276321  0.24931884     2.06300
Zr279      Zr  0.71052816  0.86351601  0.24475823     2.10000
Zr280      Zr  0.80667818  0.83194599  0.33626206     1.78800
O281        O  0.65644956  0.88361823  0.18469862    -0.94100
O282        O  0.86951575  0.79964397  0.37928083    -0.41900
O283        O  0.78945786  0.87396178  0.26879080    -0.78500
O284        O  0.85174202  0.81272471  0.27100653    -0.97200
O285        O  0.82376993  0.77184547  0.18139003    -0.90500
O286        O  0.75322483  0.84030795  0.17869556    -0.93300
C287        C  0.73674654  0.77521392  0.41246217     1.00400
C288        C  0.61530688  0.81049802  0.28825768     1.13400
C289        C  0.78028650  0.63853449  0.28690760     1.04100
O290        O  0.89606556  0.70361488  0.30715741    -0.95500
O291        O  0.92592771  0.76460288  0.23583595    -0.91200
O292        O  0.91090457  0.83041406  0.20147839    -0.84400
C293        C  0.93944318  0.80200464  0.21681412     1.10800
O294        O  0.68453274  0.70055125  0.14884177    -0.97500
Zr295      Zr  0.74449666  0.76027641  0.15978145     1.88900
O296        O  0.82924714  0.84076471  0.11756355    -0.74100
O297        O  0.87176480  0.68299572  0.18745128    -0.53400
O298        O  0.76963622  0.68992442  0.12235010    -0.98000
O299        O  0.68124386  0.78587476  0.11241734    -0.55300
O300        O  0.78177824  0.78311807  0.08923728    -0.74600
C301        C  0.81123674  0.81584066  0.08374309     0.97700
O302        O  0.89465116  0.90705217  0.19611407    -0.63400
O303        O  0.68817974  0.92335153  0.29944007    -0.58200
O304        O  0.80890134  0.93053872  0.19610857    -0.94900
O305        O  0.73814185  0.94074762  0.22494617    -0.93400
O306        O  0.78385203  0.89924892  0.38061635    -0.93700
O307        O  0.86741132  0.89003612  0.35200136    -0.92500
C308        C  0.77521083  0.95592000  0.20669147     1.16600
H309        H  0.70840656  0.83170627  0.33722955     0.32500
H310        H  0.88276569  0.82127484  0.28088380     0.43400
H311        H  0.74626774  0.85859267  0.15289459     0.36900
H312        H  0.75745285  0.68998986  0.21897890     0.33400
H313        H  0.85490738  0.77568327  0.39750858     0.25200
H314        H  0.87025644  0.70106817  0.15965297     0.31100
H315        H  0.75772476  0.69065646  0.09040503     0.37000
H316        H  0.79517127  0.89463980  0.41222928     0.31500
H317        H  0.65599680  0.92968819  0.29091213     0.30300
H318        H  0.67452099  0.90285357  0.16411128     0.32000
H319        H  0.68383022  0.76862897  0.08278350     0.31000
H320        H  0.87775867  0.89876570  0.32143546     0.35000
H321        H  0.88952994  0.92237805  0.16698180     0.27700
H322        H  0.63951515  0.68843392  0.26220101     0.32000
H323        H  0.66057032  0.70909781  0.17081158     0.34800
H324        H  0.68614872  0.90872664  0.32924606     0.27400
H325        H  0.89041129  0.93073579  0.22066533     0.40300
H326        H  0.90916601  0.67624188  0.29217191     0.30300
H327        H  0.88712104  0.78253521  0.35607494     0.38000
H328        H  0.68964134  0.81778424  0.10552070     0.29800
H329        H  0.90507345  0.68058037  0.19404488     0.29900
H330        H  0.63962793  0.68770956  0.31587817     0.30100
C331        C  0.30112777  0.28595522  0.03618349     0.79300
N332        N  0.29660679  0.33141988  0.03778330    -0.79000
C333        C  0.28812325  0.35521923  0.00021445     0.81800
N334        N  0.28823495  0.33276685  0.95874689    -0.78900
C335        C  0.29531223  0.28731020  0.95447836     0.81900
N336        N  0.30140276  0.26282921  0.99381004    -0.80600
Zr337      Zr  0.24412448  0.24466198  0.79602507     2.17500
O338        O  0.18531935  0.22830914  0.85122259    -0.52200
O339        O  0.25416116  0.16083809  0.79685041    -0.75400
O340        O  0.16201339  0.24815028  0.76652163    -0.82200
O341        O  0.34082174  0.27414287  0.89005808    -0.84000
O342        O  0.16116622  0.27507381  0.69456319    -0.79600
O343        O  0.26361067  0.26163622  0.87982668    -0.91200
O344        O  0.30000155  0.13423677  0.74062683    -0.77200
O345        O  0.25440736  0.22212419  0.71738026    -0.86700
O346        O  0.32210148  0.22181213  0.79030462    -0.86400
O347        O  0.23256706  0.31200952  0.75211568    -0.73100
O348        O  0.29241236  0.31003961  0.82053870    -0.85300
Zr349      Zr  0.36592350  0.33559015  0.69209349     2.26400
Zr350      Zr  0.24246575  0.28800441  0.67246719     2.06300
Zr351      Zr  0.37030776  0.28723898  0.81386597     2.10000
Zr352      Zr  0.33295224  0.20261117  0.71113383     1.78800
O353        O  0.40518748  0.34218283  0.87035563    -0.94100
O354        O  0.30591554  0.17843152  0.63356196    -0.41900
O355        O  0.38069580  0.26820610  0.73414969    -0.78500
O356        O  0.32139909  0.26733585  0.66667454    -0.97200
O357        O  0.28787325  0.35547513  0.69811110    -0.90500
O358        O  0.35838610  0.35486125  0.77128005    -0.93300
C359        C  0.27540784  0.12852922  0.77536041     1.00400
C360        C  0.30017847  0.26963491  0.90584754     1.13400
C361        C  0.14021727  0.26169542  0.73053062     1.04100
O362        O  0.21652704  0.22041181  0.62653804    -0.95500
O363        O  0.27645036  0.30277642  0.59542136    -0.91200
O364        O  0.35216401  0.32360950  0.60747081    -0.84400
C365        C  0.31730865  0.31210117  0.58038696     1.10800
O366        O  0.22386179  0.39102340  0.83493141    -0.97500
Zr367      Zr  0.28119965  0.37665269  0.77782292     1.88900
O368        O  0.35550018  0.42055989  0.69620599    -0.74100
O369        O  0.18703558  0.33421220  0.63370020    -0.53400
O370        O  0.22701522  0.42901861  0.74628768    -0.98000
O371        O  0.32154322  0.41180479  0.84507356    -0.55300
O372        O  0.31569207  0.44873483  0.75583269    -0.74600
C373        C  0.33845370  0.45448047  0.71968112     0.97700
O374        O  0.42865499  0.37111700  0.65251977    -0.63400
O375        O  0.41104234  0.22360404  0.84480710    -0.58200
O376        O  0.44446458  0.31800289  0.71899956    -0.94900
O377        O  0.45065088  0.29915951  0.79360550    -0.93400
O378        O  0.41529973  0.19817990  0.72532460    -0.93700
O379        O  0.37216782  0.13434912  0.68466506    -0.92500
C380        C  0.46803942  0.30646625  0.75455364     1.16600
H381        H  0.32958095  0.19724781  0.80981408     0.32500
H382        H  0.32991268  0.25565560  0.63704210     0.43400
H383        H  0.37982130  0.37951235  0.78068056     0.36900
H384        H  0.20202330  0.32278216  0.75646268     0.33400
H385        H  0.33331498  0.17638912  0.61422600     0.25200
H386        H  0.18463830  0.36186915  0.65395692     0.31100
H387        H  0.21898519  0.41593505  0.71528148     0.37000
H388        H  0.41818339  0.17884775  0.75211639     0.31500
H389        H  0.43690016  0.21815494  0.82411581     0.30300
H390        H  0.41017155  0.37083596  0.85422247     0.32000
H391        H  0.31106503  0.39398358  0.87113935     0.31000
H392        H  0.38839227  0.14218317  0.65654819     0.35000
H393        H  0.41365132  0.38911273  0.62894616     0.27700
H394        H  0.16446030  0.20426652  0.83668138     0.32000
H395        H  0.22484955  0.42466863  0.83958810     0.34800
H396        H  0.42589332  0.23635358  0.87358074     0.27400
H397        H  0.44057030  0.39425683  0.67572610     0.40300
H398        H  0.22829542  0.22518303  0.59553077     0.30300
H399        H  0.29420773  0.14653699  0.63585118     0.38000
H400        H  0.30808349  0.44211680  0.84994288     0.29800
H401        H  0.20229656  0.34471308  0.60596123     0.29900
H402        H  0.16711721  0.25616147  0.85332905     0.30100
Zr403      Zr  0.24629580  0.84295834  0.80028266     2.17500
O404        O  0.18813152  0.84271741  0.85920818    -0.52200
O405        O  0.25925089  0.92724939  0.80551163    -0.75400
O406        O  0.26930647  0.85533985  0.88039775    -0.82200
O407        O  0.15407349  0.81322385  0.70208939    -0.84000
O408        O  0.33967050  0.82609035  0.89276570    -0.79600
O409        O  0.16801627  0.85110946  0.77061550    -0.91200
O410        O  0.31214574  0.94901662  0.75401718    -0.77200
O411        O  0.32568203  0.86241876  0.79410787    -0.86700
O412        O  0.25539926  0.86109411  0.72233491    -0.86400
O413        O  0.28539627  0.77545542  0.82163831    -0.73100
O414        O  0.22262900  0.77423837  0.75636132    -0.85300
Zr415      Zr  0.35382095  0.74514072  0.69052735     2.26400
Zr416      Zr  0.36526761  0.79621665  0.81611417     2.06300
Zr417      Zr  0.23206716  0.79304452  0.67786917     2.10000
Zr418      Zr  0.33537881  0.87887518  0.71565903     1.78800
O419        O  0.18428558  0.72909964  0.64602370    -0.94100
O420        O  0.40676956  0.91894857  0.74115801    -0.41900
O421        O  0.31259190  0.81165333  0.67045303    -0.78500
O422        O  0.37615724  0.81321624  0.73679184    -0.97200
O423        O  0.34466308  0.72810272  0.76918718    -0.90500
O424        O  0.27389228  0.72643663  0.69678044    -0.93300
C425        C  0.28459660  0.95784046  0.78644681     1.00400
C426        C  0.14093918  0.83706055  0.73714027     1.13400
C427        C  0.30366077  0.84698111  0.90668796     1.04100
O428        O  0.42303423  0.85249238  0.84585192    -0.95500
O429        O  0.44305807  0.77412010  0.79567861    -0.91200
O430        O  0.43321052  0.74095503  0.72386921    -0.84400
C431        C  0.45837069  0.75303205  0.75997750     1.10800
O432        O  0.20948141  0.69645706  0.83448666    -0.97500
Zr433      Zr  0.26522873  0.70775647  0.77466535     1.88900
O434        O  0.34025659  0.65940981  0.68356702    -0.74100
O435        O  0.38535758  0.73801437  0.86941440    -0.53400
O436        O  0.29645103  0.66451977  0.83682658    -0.98000
O437        O  0.19905104  0.66377703  0.74181991    -0.55300
O438        O  0.29208066  0.63627273  0.73861695    -0.74600
C439        C  0.31782464  0.62747538  0.70436516     0.97700
O440        O  0.41918933  0.74165412  0.63979598    -0.63400
O441        O  0.19838079  0.84821074  0.62808764    -0.58200
O442        O  0.32852268  0.75126900  0.60863390    -0.94900
O443        O  0.25838418  0.78187782  0.59906342    -0.93400
O444        O  0.30494730  0.92365752  0.65426463    -0.93700
O445        O  0.38988426  0.88755010  0.65431475    -0.92500
C446        C  0.29500108  0.76477077  0.58297186     1.16600
H447        H  0.23703003  0.88655309  0.71444563     0.32500
H448        H  0.40807600  0.82126630  0.73215917     0.43400
H449        H  0.26446215  0.70105722  0.67620466     0.36900
H450        H  0.27855859  0.76875992  0.85287712     0.33400
H451        H  0.40280894  0.95107675  0.73318976     0.25200
H452        H  0.35621585  0.72997443  0.88444057     0.31100
H453        H  0.32469208  0.65112605  0.82464911     0.37000
H454        H  0.28619554  0.94716556  0.66939143     0.31500
H455        H  0.22420534  0.86085102  0.61052016     0.30300
H456        H  0.15687884  0.72812570  0.66544244     0.32000
H457        H  0.17357467  0.68527715  0.74230178     0.31000
H458        H  0.41344241  0.86474073  0.65989503     0.35000
H459        H  0.40745295  0.72870983  0.60985261     0.27700
H460        H  0.16569472  0.81774642  0.84981249     0.32000
H461        H  0.19713443  0.72706359  0.84080830     0.34800
H462        H  0.17940344  0.82955219  0.60529276     0.27400
H463        H  0.42711135  0.77397134  0.63402007     0.40300
H464        H  0.40561064  0.87987968  0.85429762     0.30300
H465        H  0.40599785  0.91958340  0.77501403     0.38000
H466        H  0.19088893  0.64110838  0.76471023     0.29800
H467        H  0.39181101  0.71073054  0.84981515     0.29900
H468        H  0.17130095  0.87125908  0.85619734     0.30100
Zr469      Zr  0.85374692  0.23451428  0.80454074     2.17500
O470        O  0.89692638  0.20642131  0.86802412    -0.52200
O471        O  0.84867040  0.15052994  0.78378255    -0.75400
O472        O  0.82870393  0.24425158  0.88733512    -0.82200
O473        O  0.94295770  0.24974613  0.70572923    -0.84000
O474        O  0.75169315  0.25196056  0.88539819    -0.79600
O475        O  0.93726649  0.24944041  0.78312235    -0.91200
O476        O  0.78423917  0.12589702  0.74375625    -0.77200
O477        O  0.77304466  0.21856134  0.79376237    -0.86700
O478        O  0.84212586  0.21284874  0.72498831    -0.86400
O479        O  0.81775735  0.30652606  0.82394349    -0.73100
O480        O  0.88059223  0.29789005  0.76070059    -0.85300
Zr481      Zr  0.74973433  0.33210348  0.69265551     2.26400
Zr482      Zr  0.73669583  0.28927995  0.81283614     2.06300
Zr483      Zr  0.86733072  0.27544078  0.68123475     2.10000
Zr484      Zr  0.76195604  0.19736482  0.71414160     1.78800
O485        O  0.92401902  0.33200701  0.65721060    -0.94100
O486        O  0.68950844  0.16515523  0.74094858    -0.41900
O487        O  0.78600467  0.26144507  0.67054979    -0.78500
O488        O  0.72501020  0.26552547  0.73355597    -0.97200
O489        O  0.76280929  0.35367778  0.77096140    -0.90500
O490        O  0.83057265  0.34631741  0.69947622    -0.93300
C491        C  0.82298489  0.11874533  0.76256658     1.00400
C492        C  0.96152087  0.25159033  0.74599698     1.13400
C493        C  0.78983280  0.24972626  0.90800781     1.04100
O494        O  0.66817229  0.26105662  0.85044862    -0.95500
O495        O  0.65890976  0.30575019  0.78453156    -0.91200
O496        O  0.66657212  0.32307668  0.70969190    -0.84400
C497        C  0.64195583  0.31281432  0.74453893     1.10800
O498        O  0.90396823  0.38099033  0.83596123    -0.97500
Zr499      Zr  0.84392245  0.36856959  0.77750885     1.88900
O500        O  0.75157553  0.41521964  0.71781421    -0.74100
O501        O  0.73110201  0.35774049  0.86204670    -0.53400
O502        O  0.82099650  0.43185355  0.82727660    -0.98000
O503        O  0.91094263  0.39743920  0.73794493    -0.55300
O504        O  0.81801339  0.44167445  0.75195324    -0.74600
C505        C  0.77757952  0.44826003  0.73640381     0.97700
O506        O  0.70282465  0.36081681  0.63140118    -0.63400
O507        O  0.88925596  0.21391597  0.62818958    -0.58200
O508        O  0.78013291  0.33247904  0.61380946    -0.94900
O509        O  0.84593528  0.29392209  0.60309694    -0.93400
O510        O  0.78967308  0.14483170  0.65506611    -0.93700
O511        O  0.70713651  0.18644791  0.65010787    -0.92500
C512        C  0.81330244  0.31821322  0.58854020     1.16600
H513        H  0.85981503  0.18715439  0.71503766     0.32500
H514        H  0.69433073  0.25387397  0.72651409     0.43400
H515        H  0.84039962  0.37018624  0.67970410     0.36900
H516        H  0.82419166  0.31697890  0.85521742     0.33400
H517        H  0.69497736  0.13252003  0.74546382     0.25200
H518        H  0.70979152  0.37714780  0.84538491     0.31100
H519        H  0.78768771  0.42639325  0.83193281     0.37000
H520        H  0.80429072  0.16470313  0.63261596     0.31500
H521        H  0.91593456  0.22678808  0.61202308     0.30300
H522        H  0.94799780  0.31408452  0.64202378     0.32000
H523        H  0.93496819  0.37513246  0.74352535     0.31000
H524        H  0.71771123  0.20822095  0.62726005     0.35000
H525        H  0.68139992  0.33488712  0.62296027     0.27700
H526        H  0.92891449  0.21678069  0.86252277     0.32000
H527        H  0.90609559  0.41435768  0.84269342     0.34800
H528        H  0.90240594  0.19031347  0.64731976     0.27400
H529        H  0.68356182  0.38371388  0.64678158     0.40300
H530        H  0.66201393  0.22990414  0.83686029     0.30300
H531        H  0.68652688  0.17867597  0.77229205     0.38000
H532        H  0.92146351  0.42534193  0.75594688     0.29800
H533        H  0.71347122  0.34758422  0.88857408     0.29900
H534        H  0.89539959  0.17307134  0.86134895     0.30100
Zr535      Zr  0.85211620  0.84689313  0.79684759     2.17500
O536        O  0.88658770  0.90190770  0.85382126    -0.52200
O537        O  0.93572476  0.85017517  0.77864473    -0.75400
O538        O  0.85047153  0.83019967  0.87834022    -0.82200
O539        O  0.82078613  0.92568555  0.70053791    -0.84000
O540        O  0.81609455  0.76279523  0.89603559    -0.79600
O541        O  0.84074962  0.92634021  0.77617093    -0.91200
O542        O  0.95809521  0.79117296  0.73286539    -0.77200
O543        O  0.86950106  0.76815297  0.79333558    -0.86700
O544        O  0.86684584  0.83102591  0.71833437    -0.86400
O545        O  0.78289721  0.80657175  0.82021167    -0.73100
O546        O  0.78232127  0.86443017  0.75613078    -0.85300
Zr547      Zr  0.74671740  0.72435911  0.69580339     2.26400
Zr548      Zr  0.80129532  0.72693432  0.81752527     2.06300
Zr549      Zr  0.79733954  0.84664534  0.67769363     2.10000
Zr550      Zr  0.88418732  0.75222271  0.71416018     1.78800
O551        O  0.73285833  0.89279494  0.65654362    -0.94100
O552        O  0.92843606  0.69511275  0.75242557    -0.41900
O553        O  0.81435686  0.76685682  0.67274995    -0.78500
O554        O  0.81736553  0.71023862  0.73783210    -0.97200
O555        O  0.73205427  0.74232166  0.77449408    -0.90500
O556        O  0.72958672  0.80360002  0.69913449    -0.93300
C557        C  0.96673037  0.82876323  0.75577262     1.00400
C558        C  0.83365115  0.94654882  0.73850860     1.13400
C559        C  0.83474172  0.80228863  0.90780192     1.04100
O560        O  0.86420164  0.68598298  0.85088100    -0.95500
O561        O  0.78177061  0.64530441  0.79511586    -0.91200
O562        O  0.74991125  0.64457116  0.72307827    -0.84400
C563        C  0.76358124  0.62387978  0.75909110     1.10800
O564        O  0.70633675  0.88924409  0.82706300    -0.97500
Zr565      Zr  0.71456946  0.82140555  0.77718104     1.88900
O566        O  0.66176915  0.71858951  0.71486082    -0.74100
O567        O  0.74403494  0.69721037  0.86920484    -0.53400
O568        O  0.67529296  0.81097206  0.84882574    -0.98000
O569        O  0.66902327  0.87499922  0.73551637    -0.55300
O570        O  0.64177933  0.77978701  0.75920970    -0.74600
C571        C  0.63141040  0.74182048  0.73737146     0.97700
O572        O  0.74038606  0.66938819  0.63036627    -0.63400
O573        O  0.84656819  0.87678514  0.61884072    -0.58200
O574        O  0.73901655  0.75324138  0.61601583    -0.94900
O575        O  0.78156962  0.81700980  0.60023484    -0.93400
O576        O  0.91976347  0.77380080  0.64317613    -0.93700
O577        O  0.89303611  0.68747705  0.66035999    -0.92500
C578        C  0.75405954  0.78372878  0.58802764     1.16600
H579        H  0.89126031  0.85012378  0.70679098     0.32500
H580        H  0.82612346  0.67908992  0.73287711     0.43400
H581        H  0.70329968  0.80923244  0.67970401     0.36900
H582        H  0.77382936  0.81696239  0.85026516     0.33400
H583        H  0.93488770  0.70812628  0.78380083     0.25200
H584        H  0.76162287  0.67875077  0.89060911     0.31100
H585        H  0.69191059  0.78655957  0.86373741     0.37000
H586        H  0.95171377  0.76341978  0.64537618     0.31500
H587        H  0.82940735  0.90223130  0.60632598     0.30300
H588        H  0.72254771  0.88081554  0.62572441     0.32000
H589        H  0.68662404  0.90448962  0.73866118     0.31000
H590        H  0.92581898  0.67978791  0.66295050     0.35000
H591        H  0.77050979  0.67144492  0.61537434     0.27700
H592        H  0.86134250  0.92149943  0.86389339     0.32000
H593        H  0.73075696  0.91108811  0.81785411     0.34800
H594        H  0.87329682  0.89183536  0.63552780     0.27400
H595        H  0.73893220  0.63826533  0.64207250     0.40300
H596        H  0.84896996  0.66313808  0.86999837     0.30300
H597        H  0.90637292  0.66926547  0.75659099     0.38000
H598        H  0.64152943  0.87955861  0.75429742     0.29800
H599        H  0.73470187  0.72388128  0.88821207     0.29900
H600        H  0.90728531  0.92221054  0.83673652     0.30100
C601        C  0.58199722  0.72296157  0.74143520     0.79300
N602        N  0.57237960  0.67713894  0.73440909    -0.79000
C603        C  0.53069688  0.65833518  0.74599293     0.81800
N604        N  0.49875195  0.68569331  0.76292113    -0.78900
C605        C  0.50375848  0.73120019  0.76327119     0.81900
N606        N  0.54599787  0.75068226  0.75307896    -0.80600
C607        C  0.33454813  0.49865216  0.69581530     0.79300
N608        N  0.33163875  0.54263371  0.71438809    -0.79000
C609        C  0.31929216  0.57778255  0.68632693     0.81800
N610        N  0.30354196  0.56658274  0.64216580    -0.78900
C611        C  0.30395416  0.52213915  0.62578225     0.81900
N612        N  0.32209491  0.49081835  0.65213804    -0.80600
C613        C  0.59422386  0.29521872  0.73422096     0.79300
N614        N  0.58993108  0.26177519  0.70068492    -0.79000
C615        C  0.54879616  0.24066782  0.68977839     0.81800
N616        N  0.51180598  0.25372324  0.71318340    -0.78900
C617        C  0.51379698  0.28855599  0.74464648     0.81900
N618        N  0.55557811  0.30972030  0.75622866    -0.80600
C619        C  0.75508938  0.49301744  0.74748092     0.79300
N620        N  0.70998612  0.48830266  0.75647305    -0.79000
C621        C  0.68447911  0.52419530  0.76824779     0.81800
N622        N  0.70443356  0.56651971  0.77082109    -0.78900
C623        C  0.74934074  0.57396156  0.76175410     0.81900
N624        N  0.77563380  0.53667091  0.74969893    -0.80600
C625        C  0.58959285  0.36486317  0.23330680     0.79300
N626        N  0.59504010  0.41042813  0.22994700    -0.79000
C627        C  0.55946608  0.43787773  0.23686482     0.81800
N628        N  0.51623589  0.41941642  0.23031992    -0.78900
C629        C  0.50826377  0.37372940  0.23257311     0.81900
N630        N  0.54557581  0.34575534  0.23566830    -0.80600
C631        C  0.76661563  0.51153369  0.31450352     0.79300
N632        N  0.77624350  0.54911885  0.28793154    -0.79000
C633        C  0.77989082  0.59266641  0.30858729     0.81800
N634        N  0.77472115  0.59716510  0.35374732    -0.78900
C635        C  0.76234689  0.56241369  0.37957396     0.81900
N636        N  0.75791989  0.51931718  0.36011036    -0.80600
C637        C  0.56857827  0.81453623  0.30906155     0.79300
N638        N  0.52821020  0.82612177  0.28699396    -0.79000
C639        C  0.48760565  0.82552158  0.31110581     0.81800
N640        N  0.48809081  0.81192285  0.35466427    -0.78900
C641        C  0.52691658  0.80004538  0.37583338     0.81900
N642        N  0.56667340  0.80230148  0.35287158    -0.80600
C643        C  0.31598118  0.52375102  0.26659301     0.79300
N644        N  0.28886933  0.56193003  0.26604224    -0.79000
C645        C  0.30949676  0.60390980  0.25627365     0.81800
N646        N  0.35531631  0.60598965  0.24717754    -0.78900
C647        C  0.38050969  0.56833279  0.24616690     0.81900
N648        N  0.36038468  0.52850780  0.25659130    -0.80600
C649        C  0.72030345  0.77137812  0.46149209     0.79300
N650        N  0.74860388  0.78254944  0.49953743    -0.79000
C651        C  0.72983260  0.78451498  0.54256228     0.81800
N652        N  0.68457077  0.77864749  0.54625494    -0.78900
C653        C  0.65785920  0.76150432  0.51154890     0.81900
N654        N  0.67572880  0.75706879  0.46872492    -0.80600
C655        C  0.81507850  0.34944011  0.46377785     0.79300
N656        N  0.81542403  0.39513653  0.47139533    -0.79000
C657        C  0.81491859  0.41423306  0.51418920     0.81800
N658        N  0.81884161  0.38702296  0.54983476    -0.78900
C659        C  0.81884556  0.34131763  0.54449965     0.81900
N660        N  0.81598537  0.32139615  0.50076611    -0.80600
C661        C  0.29374329  0.76145636  0.45213812     0.79300
N662        N  0.30445988  0.71739345  0.44592709    -0.79000
C663        C  0.31127791  0.69059002  0.48092329     0.81800
N664        N  0.30740848  0.70818804  0.52383426    -0.78900
C665        C  0.29658800  0.75188414  0.53276950     0.81900
N666        N  0.28901846  0.77979666  0.49631022    -0.80600
C667        C  0.31431113  0.31301222  0.44968127     0.79300
N668        N  0.30339989  0.32397082  0.49452663    -0.79000
C669        C  0.32683285  0.30346012  0.52976528     0.81800
N670        N  0.36124494  0.27420384  0.51877552    -0.78900
C671        C  0.36961921  0.26219605  0.47409632     0.81900
N672        N  0.34521606  0.28145512  0.44135291    -0.80600
O673        O  0.92193802  0.10561450  0.96710417    -0.87400
O674        O  0.17382893  0.12035790  0.04690538    -0.87500
O675        O  0.06521287  0.06809229  0.92932295    -0.89200
O676        O  0.02571885  0.05790567  0.06339277    -0.88000
O677        O  0.01029001  0.10500824  0.12446845    -0.87600
O678        O  0.08922096  0.11821235  0.87687944    -0.88900
O679        O  0.11763172  0.06667826  0.02620977    -0.87400
O680        O  0.98273400  0.05900404  0.97477209    -0.87000
Zr681      Zr  0.04882511  0.10244084  0.00214669     2.84300
O682        O  0.07217500  0.14632958  0.06574610    -1.09000
O683        O  0.02402923  0.14568656  0.94420648    -1.09700
C684        C  0.93962356  0.06604394  0.97189609     1.05700
C685        C  0.15944300  0.07870988  0.03708415     1.05700
C686        C  0.07818074  0.07750061  0.88919236     1.08700
C687        C  0.01756164  0.06449587  0.10569595     1.06400
H688        H  0.12884287  0.12737684  0.97108892     0.32000
O689        O  0.10722154  0.14934506  0.98093621    -1.29900
H690        H  0.96767173  0.11770590  0.03813530     0.31700
O691        O  0.98822908  0.14167653  0.02887654    -1.31600
O692        O  0.16632079  0.27295748  0.05045806    -0.87400
O693        O  0.92486449  0.25909674  0.96073077    -0.88900
O694        O  0.16782335  0.17512933  0.92190125    -0.87500
O695        O  0.05798438  0.17822116  0.16019171    -0.87500
O696        O  0.92807873  0.16129819  0.09142257    -0.87200
O697        O  0.03330122  0.17419861  0.85489366    -0.87000
O698        O  0.06141915  0.31830793  0.94460717    -0.87400
O699        O  0.02062827  0.31665048  0.07104439    -0.86900
O700        O  0.08950917  0.27008287  0.88927286    -0.87900
O701        O  0.00379394  0.26616952  0.12673002    -0.87100
O702        O  0.19832076  0.18223089  0.99550706    -0.87500
O703        O  0.96782732  0.14974980  0.88974714    -0.87200
O704        O  0.89680949  0.17658855  0.02104032    -0.86800
O705        O  0.12364731  0.16145404  0.12269767    -0.87300
O706        O  0.11050191  0.31932993  0.02444508    -0.87500
O707        O  0.97825349  0.31171250  0.99120558    -0.88900
Zr708      Zr  0.13389537  0.19300502  0.04542259     2.83100
Zr709      Zr  0.95915288  0.18281474  0.96822476     2.83500
Zr710      Zr  0.08479049  0.19201641  0.91929968     2.84100
Zr711      Zr  0.00970699  0.18581174  0.09413954     2.83400
Zr712      Zr  0.04481089  0.27273808  0.00820299     2.84200
O713        O  0.98336664  0.22819142  0.03290900    -1.09500
O714        O  0.10966754  0.23625988  0.98371667    -1.09000
C715        C  0.15140399  0.31176240  0.03718640     1.05700
C716        C  0.93844709  0.30009418  0.97530055     1.08300
C717        C  0.19963190  0.16927950  0.95289629     1.05900
C718        C  0.09640804  0.15859805  0.15710793     1.06200
C719        C  0.89642813  0.15671476  0.05939475     1.05800
C720        C  0.99570139  0.15005158  0.85572025     1.05400
C721        C  0.07627654  0.30970324  0.90449658     1.05800
C722        C  0.01059038  0.30713901  0.11166516     1.05300
H723        H  0.00707290  0.24922292  0.91941157     0.32000
O724        O  0.01893011  0.23070802  0.94316978    -1.30600
H725        H  0.08296254  0.25510553  0.09652535     0.32000
O726        O  0.07181980  0.23441347  0.07185976    -1.31900
O727        O  0.40898488  0.54455539  0.59586580    -0.87400
O728        O  0.56338888  0.35628989  0.55149039    -0.87500
O729        O  0.38729710  0.43026686  0.55497842    -0.89200
O730        O  0.50102653  0.44791659  0.65886477    -0.88000
O731        O  0.56807709  0.46008851  0.62910855    -0.87600
O732        O  0.38192561  0.42613571  0.47639116    -0.88900
O733        O  0.49710877  0.36591592  0.59001343    -0.87400
O734        O  0.42737490  0.48750215  0.63923995    -0.87000
Zr735      Zr  0.46904199  0.44328830  0.58118002     2.84300
O736        O  0.52894584  0.47574971  0.53727795    -1.09000
O737        O  0.43686019  0.48324108  0.52284672    -1.09700
C738        C  0.42011681  0.53014314  0.63509800     1.05700
C739        C  0.53132703  0.34210180  0.57678255     1.05700
C740        C  0.36376230  0.42814783  0.51644108     1.08700
C741        C  0.54278492  0.46118220  0.66360764     1.06400
H742        H  0.47790826  0.37807263  0.51039513     0.32000
O743        O  0.49033211  0.40893349  0.51086429    -1.29900
H744        H  0.50211264  0.53155246  0.62505139     0.31700
O745        O  0.50328014  0.51841767  0.59467365    -1.31600
O746        O  0.62294856  0.42135983  0.43723730    -0.87400
O747        O  0.46739001  0.62492426  0.49115618    -0.88900
O748        O  0.47321712  0.36974237  0.42666452    -0.87500
O749        O  0.64191202  0.48141535  0.61065161    -0.87500
O750        O  0.56240728  0.59965992  0.61248282    -0.87200
O751        O  0.39379537  0.48977767  0.41617804    -0.87000
O752        O  0.53726337  0.53704392  0.37943132    -0.87400
O753        O  0.62915469  0.58210125  0.47927751    -0.86900
O754        O  0.47412814  0.48749258  0.37591715    -0.87900
O755        O  0.64865517  0.56482269  0.55235347    -0.87100
O756        O  0.54150861  0.35040796  0.46017503    -0.87500
O757        O  0.42275333  0.51107194  0.48113678    -0.87200
O758        O  0.50473106  0.62599578  0.56852929    -0.86800
O759        O  0.62504323  0.41717312  0.56908597    -0.87300
O760        O  0.63309788  0.49668012  0.42930613    -0.87500
O761        O  0.53386817  0.60797899  0.45567777    -0.88900
Zr762      Zr  0.57135652  0.41810091  0.50248306     2.83100
Zr763      Zr  0.46574831  0.55825197  0.53688585     2.83500
Zr764      Zr  0.45866069  0.45003668  0.44933897     2.84100
Zr765      Zr  0.58085962  0.52388451  0.58127121     2.83400
Zr766      Zr  0.56516091  0.53267443  0.45643721     2.84200
O767        O  0.54583233  0.56479064  0.52677130    -1.09500
O768        O  0.53899698  0.45578790  0.44129579    -1.09000
C769        C  0.62987257  0.45604844  0.41226906     1.05700
C770        C  0.50225545  0.63562598  0.46675961     1.08300
C771        C  0.50341169  0.34043850  0.43829530     1.05900
C772        C  0.65425774  0.44829010  0.58478668     1.06200
C773        C  0.54243927  0.63184521  0.59160780     1.05800
C774        C  0.39542065  0.51974693  0.44868525     1.05400
C775        C  0.50099590  0.51890222  0.35947045     1.05800
C776        C  0.65696750  0.58366360  0.51416697     1.05300
H777        H  0.47671187  0.54721388  0.44081621     0.32000
O778        O  0.48693672  0.52726691  0.46431442    -1.30600
H779        H  0.63620479  0.49341612  0.50896586     0.32000
O780        O  0.60346925  0.49180296  0.51173722    -1.31900
C781        C  0.48963541  0.26847525  0.47598987    -0.27200
C782        C  0.48910183  0.29172041  0.43470827    -0.15300
C783        C  0.45830412  0.27547318  0.39983906     0.35300
C784        C  0.42182248  0.24594583  0.41116348    -0.26700
C785        C  0.41251523  0.24079624  0.45801089    -0.15900
C786        C  0.45077095  0.24215387  0.48774342     0.36400
N787        N  0.44883118  0.22139679  0.53104962    -0.90100
H788        H  0.51630032  0.27632280  0.50155697     0.17500
H789        H  0.39464603  0.23946253  0.38574530     0.17500
N790        N  0.46062101  0.29327861  0.35510884    -0.89200
H791        H  0.47425736  0.19710169  0.53149030     0.34900
H792        H  0.41746212  0.20340505  0.53393232     0.40000
H793        H  0.42966011  0.30895231  0.34826059     0.39600
H794        H  0.46331694  0.26573441  0.33156200     0.34500
C795        C  0.36779545  0.58003865  0.49694605    -0.27200
C796        C  0.37081036  0.56215902  0.45227954    -0.15300
C797        C  0.35112495  0.58520891  0.41605621     0.35300
C798        C  0.32967549  0.62640786  0.42617607    -0.26700
C799        C  0.32849525  0.64479663  0.47182732    -0.15900
C800        C  0.34763041  0.62031676  0.50737510     0.36400
N801        N  0.34796559  0.63485760  0.55470858    -0.90100
H802        H  0.38037199  0.56167726  0.52516753     0.17500
H803        H  0.31478467  0.64440491  0.39819017     0.17500
N804        N  0.35334443  0.56852515  0.36947404    -0.89200
H805        H  0.31428836  0.63782593  0.56581097     0.34900
H806        H  0.36694441  0.66564582  0.55931440     0.40000
H807        H  0.33706907  0.53618672  0.36667050     0.39600
H808        H  0.38791037  0.56524496  0.36138753     0.34500
C809        C  0.78201949  0.46897263  0.56815314    -0.27200
C810        C  0.78455482  0.45239139  0.52228393    -0.15300
C811        C  0.74341528  0.44785587  0.49615893     0.35300
C812        C  0.70291438  0.44064985  0.51892654    -0.26700
C813        C  0.70007854  0.45137971  0.56551183    -0.15900
C814        C  0.73948695  0.46984613  0.58969191     0.36400
N815        N  0.73772484  0.48774469  0.63588662    -0.90100
H816        H  0.81325326  0.47577219  0.58850778     0.17500
H817        H  0.67315980  0.42755496  0.49985248     0.17500
N818        N  0.74349789  0.44261741  0.44717155    -0.89200
H819        H  0.72111155  0.46337978  0.65524148     0.34900
H820        H  0.71801994  0.51686404  0.63630242     0.40000
H821        H  0.72350243  0.46805585  0.43395288     0.39600
H822        H  0.72750333  0.41113316  0.43740941     0.34500
C823        C  0.64231315  0.69631524  0.55623701    -0.27200
C824        C  0.62319697  0.72936085  0.52859272    -0.15300
C825        C  0.57643440  0.73938799  0.53427618     0.35300
C826        C  0.54867788  0.70954376  0.55931214    -0.26700
C827        C  0.56845362  0.67474700  0.58447183    -0.15900
C828        C  0.61615488  0.67336258  0.58753007     0.36400
N829        N  0.63803765  0.64884141  0.62268337    -0.90100
H830        H  0.67914107  0.69176432  0.55704130     0.17500
H831        H  0.51171974  0.71292356  0.55833086     0.17500
N832        N  0.55634901  0.77882128  0.51564095    -0.89200
H833        H  0.65693500  0.67258734  0.64352289     0.34900
H834        H  0.66107329  0.62656328  0.60786263     0.40000
H835        H  0.58058004  0.79810593  0.49821383     0.39600
H836        H  0.54564224  0.79957101  0.54305278     0.34500
C837        C  0.45233012  0.60169711  0.27843989    -0.27200
C838        C  0.43107411  0.57006877  0.24674500    -0.15300
C839        C  0.45046157  0.52700345  0.24106442     0.35300
C840        C  0.47264303  0.50962327  0.27892579    -0.26700
C841        C  0.48690838  0.53846892  0.31604756    -0.15900
C842        C  0.48063636  0.58595463  0.31357536     0.36400
N843        N  0.49771060  0.61719010  0.34944704    -0.90100
H844        H  0.44046281  0.63629720  0.28134745     0.17500
H845        H  0.47480134  0.47329272  0.28086358     0.17500
N846        N  0.43640748  0.49713924  0.20284291    -0.89200
H847        H  0.46970673  0.63318241  0.36412987     0.34900
H848        H  0.51825438  0.64225657  0.33466706     0.40000
H849        H  0.41912742  0.46840147  0.21502657     0.39600
H850        H  0.46609358  0.48609205  0.18696062     0.34500
C851        C  0.55942734  0.73851074  0.41664361    -0.27200
C852        C  0.52348543  0.76828009  0.41332048    -0.15300
C853        C  0.48177525  0.75783769  0.43525467     0.35300
C854        C  0.47533400  0.71500702  0.45471610    -0.26700
C855        C  0.50948403  0.68241873  0.45094666    -0.15900
C856        C  0.55217863  0.69528776  0.43202012     0.36400
N857        N  0.58843981  0.66419007  0.42581868    -0.90100
H858        H  0.59263769  0.74619455  0.40220559     0.17500
H859        H  0.44304851  0.70663433  0.47065818     0.17500
N860        N  0.44601134  0.79012032  0.43729315    -0.89200
H861        H  0.61798949  0.67952678  0.44102672     0.34900
H862        H  0.59360709  0.66008541  0.39063836     0.40000
H863        H  0.43930647  0.79734064  0.47179224     0.39600
H864        H  0.41627965  0.77470008  0.42199662     0.34500
C865        C  0.75840837  0.55780601  0.46576308    -0.27200
C866        C  0.74395534  0.57629471  0.42455517    -0.15300
C867        C  0.71685837  0.61553693  0.42706777     0.35300
C868        C  0.70324038  0.63302731  0.46956996    -0.26700
C869        C  0.70308276  0.60400964  0.50595950    -0.15900
C870        C  0.73933120  0.57363654  0.50729184     0.36400
N871        N  0.75769585  0.56024534  0.55017565    -0.90100
H872        H  0.78479824  0.53271977  0.46579237     0.17500
H873        H  0.68177187  0.66208661  0.47096708     0.17500
N874        N  0.70063159  0.63576447  0.38633125    -0.89200
H875        H  0.74056545  0.57639500  0.57707967     0.34900
H876        H  0.79189152  0.57234013  0.55270877     0.40000
H877        H  0.71036810  0.67027800  0.38842083     0.39600
H878        H  0.66488042  0.63257654  0.38504308     0.34500
C879        C  0.54938703  0.43575514  0.31680233    -0.27200
C880        C  0.56723556  0.46162153  0.28165398    -0.15300
C881        C  0.60776289  0.48835798  0.29093933     0.35300
C882        C  0.63063848  0.48538160  0.33357542    -0.26700
C883        C  0.61651950  0.45168440  0.36383322    -0.15900
C884        C  0.57786200  0.42361187  0.35200381     0.36400
N885        N  0.56711173  0.38293195  0.37562143    -0.90100
H886        H  0.51715367  0.41655112  0.31226405     0.17500
H887        H  0.65970780  0.50829843  0.34255935     0.17500
N888        N  0.62623207  0.51677278  0.25675790    -0.89200
H889        H  0.59433088  0.36117572  0.37096644     0.34900
H890        H  0.53861766  0.36536616  0.36013158     0.40000
H891        H  0.65949249  0.50639820  0.24996302     0.39600
H892        H  0.62874042  0.55026965  0.27053674     0.34500
C893        C  0.61413525  0.47489773  0.76997999    -0.27200
C894        C  0.63439543  0.51803369  0.76217127    -0.15300
C895        C  0.61211751  0.54693178  0.73223718     0.35300
C896        C  0.57682361  0.52854739  0.70344275    -0.26700
C897        C  0.56165215  0.48314570  0.70593432    -0.15900
C898        C  0.57763144  0.45726959  0.74166742     0.36400
N899        N  0.56104200  0.41129582  0.74542170    -0.90100
H900        H  0.63062855  0.45254224  0.79342542     0.17500
H901        H  0.56394644  0.54846047  0.67616624     0.17500
N902        N  0.62990816  0.59242977  0.72610976    -0.89200
H903        H  0.54900586  0.40788804  0.77857886     0.34900
H904        H  0.58919676  0.39058713  0.74132670     0.40000
H905        H  0.62494304  0.61125954  0.75664724     0.39600
H906        H  0.61166970  0.60773885  0.70010712     0.34500
C907        C  0.57575980  0.22849327  0.61280333    -0.27200
C908        C  0.54014562  0.21974881  0.64295868    -0.15300
C909        C  0.49646726  0.23036573  0.62580547     0.35300
C910        C  0.49330078  0.27289702  0.60613128    -0.26700
C911        C  0.53348257  0.29456051  0.59075842    -0.15900
C912        C  0.57385749  0.26821273  0.58787425     0.36400
N913        N  0.61282286  0.28058933  0.56145506    -0.90100
H914        H  0.60829479  0.21211383  0.61687393     0.17500
H915        H  0.46022482  0.28840314  0.60255349     0.17500
N916        N  0.45634110  0.20539585  0.63945530    -0.89200
H917        H  0.62632868  0.31225556  0.57355732     0.34900
H918        H  0.60203390  0.28273531  0.52729248     0.40000
H919        H  0.45682446  0.17321955  0.62275611     0.39600
H920        H  0.42670738  0.22080503  0.62765643     0.34500
C921        C  0.29165655  0.51649355  0.53972134    -0.27200
C922        C  0.28082464  0.50184657  0.58315793    -0.15300
C923        C  0.26783639  0.45501763  0.58523223     0.35300
C924        C  0.28849165  0.42357290  0.55532044    -0.26700
C925        C  0.31397582  0.43931383  0.51889090    -0.15900
C926        C  0.30265664  0.48337517  0.50536499     0.36400
N927        N  0.29893702  0.49341848  0.45795231    -0.90100
H928        H  0.28963506  0.55212556  0.53259031     0.17500
H929        H  0.28874069  0.38850265  0.56372769     0.17500
N930        N  0.24249587  0.43951453  0.62328577    -0.89200
H931        H  0.26485097  0.50149150  0.45109501     0.34900
H932        H  0.30517243  0.46415091  0.43765904     0.40000
H933        H  0.26165735  0.41534932  0.63982665     0.39600
H934        H  0.21222052  0.42349815  0.61008887     0.34500
C935        C  0.48734897  0.63407183  0.67900640    -0.27200
C936        C  0.50865177  0.61987211  0.71896449    -0.15300
C937        C  0.49181524  0.57891194  0.73785019     0.35300
C938        C  0.46023787  0.54998973  0.71176815    -0.26700
C939        C  0.44071509  0.56401267  0.67021455    -0.15900
C940        C  0.45179052  0.60850896  0.65666485     0.36400
N941        N  0.42753275  0.62751793  0.61925680    -0.90100
H942        H  0.49591277  0.66784684  0.66716536     0.17500
H943        H  0.45128771  0.51647858  0.72379576     0.17500
N944        N  0.50522235  0.56625773  0.78308749    -0.89200
H945        H  0.44023116  0.66030496  0.61319921     0.34900
H946        H  0.39364379  0.63044456  0.62913693     0.40000
H947        H  0.52997831  0.58941046  0.79765810     0.39600
H948        H  0.52065126  0.53467183  0.78040894     0.34500
C949        C  0.24587202  0.40268103  0.05190620    -0.27200
C950        C  0.26044034  0.39697568  0.00651434    -0.15300
C951        C  0.22329630  0.39563277  0.97503719     0.35300
C952        C  0.18584185  0.36669181  0.98508016    -0.26700
C953        C  0.18314559  0.35007451  0.02969252    -0.15900
C954        C  0.20985289  0.37256015  0.06482024     0.36400
N955        N  0.20088823  0.36423912  0.11158116    -0.90100
H956        H  0.26934614  0.41836718  0.07719238     0.17500
H957        H  0.16129352  0.35537385  0.95822776     0.17500
N958        N  0.22781204  0.41292639  0.93034439    -0.89200
H959        H  0.22513899  0.38214631  0.13241723     0.34900
H960        H  0.20483299  0.32953923  0.11661131     0.40000
H961        H  0.25900480  0.43151464  0.92882380     0.39600
H962        H  0.20186753  0.43624674  0.92609268     0.34500
C963        C  0.12216593  0.09278525  0.26310650    -0.27200
C964        C  0.14219485  0.05510540  0.24092257    -0.15300
C965        C  0.12807078  0.04372400  0.19562704     0.35300
C966        C  0.11342576  0.07893000  0.16876694    -0.26700
C967        C  0.10544322  0.12222374  0.18870770    -0.15900
C968        C  0.10458718  0.12753585  0.23673050     0.36400
N969        N  0.08948407  0.16870688  0.25851213    -0.90100
H970        H  0.12895831  0.09978043  0.29936292     0.17500
H971        H  0.11041498  0.07319892  0.13195091     0.17500
N972        N  0.14038081  0.00083588  0.17468599    -0.89200
H973        H  0.11637960  0.18236496  0.27966870     0.34900
H974        H  0.06219220  0.16008514  0.27951278     0.40000
H975        H  0.13215600  0.99941879  0.13970323     0.39600
H976        H  0.12077620  0.97523519  0.18965372     0.34500
C977        C  0.98058495  0.36667727  0.16754247    -0.27200
C978        C  0.01649164  0.34708754  0.14304861    -0.15300
C979        C  0.06085034  0.36867688  0.14794797     0.35300
C980        C  0.06974480  0.39938490  0.18559744    -0.26700
C981        C  0.03857244  0.39625875  0.22105994    -0.15900
C982        C  0.99309356  0.39832513  0.20386438     0.36400
N983        N  0.95924214  0.42071219  0.22996449    -0.90100
H984        H  0.94532183  0.35569558  0.16079922     0.17500
H985        H  0.10383248  0.41417923  0.19208799     0.17500
N986        N  0.09713776  0.35570750  0.11869362    -0.89200
H987        H  0.96799484  0.45560895  0.23137718     0.34900
H988        H  0.96155935  0.40956470  0.26340958     0.40000
H989        H  0.12170835  0.34027011  0.13881621     0.39600
H990        H  0.11164716  0.38535064  0.10555690     0.34500
C991        C  0.87936482  0.07652714  0.07478438    -0.27200
C992        C  0.86271016  0.11889205  0.06279058    -0.15300
C993        C  0.81672086  0.12107776  0.04756916     0.35300
C994        C  0.78670028  0.08318716  0.05234249    -0.26700
C995        C  0.80202742  0.04597564  0.07638689    -0.15900
C996        C  0.84950969  0.03862722  0.07771197     0.36400
N997        N  0.86719548  0.99782890  0.09577293    -0.90100
H998        H  0.91557305  0.07280085  0.08249843     0.17500
H999        H  0.75013055  0.08730106  0.04718671     0.17500
N1000       N  0.79970757  0.16229340  0.03059308    -0.89200
H1001       H  0.84226530  0.97130787  0.09238374     0.34900
H1002       H  0.87463806  0.00404466  0.13068120     0.40000
H1003       H  0.77274228  0.17239414  0.05132187     0.39600
H1004       H  0.78621397  0.15494600  0.99756493     0.34500
C1005       C  0.00441685  0.01702711  0.17702319    -0.27200
C1006       C  0.02007362  0.02077526  0.13194443    -0.15300
C1007       C  0.04037866  0.98120906  0.11119809     0.35300
C1008       C  0.04346417  0.94074674  0.13453777    -0.26700
C1009       C  0.02723544  0.93678056  0.17858274    -0.15900
C1010       C  0.00769519  0.97556856  0.20030763     0.36400
N1011       N  0.99248090  0.97427059  0.24645993    -0.90100
H1012       H  0.98965702  0.04626267  0.19426894     0.17500
H1013       H  0.05859605  0.91156285  0.11740661     0.17500
N1014       N  0.05920358  0.98140152  0.06622446    -0.89200
H1015       H  0.02042059  0.96607287  0.26725665     0.34900
H1016       H  0.96735583  0.94819662  0.24820632     0.40000
H1017       H  0.04204911  0.95585643  0.04571525     0.39600
H1018       H  0.09388946  0.97346456  0.06855100     0.34500
C1019       C  0.24932222  0.05470288  0.92778221    -0.27200
C1020       C  0.29460953  0.06644847  0.91856386    -0.15300
C1021       C  0.31211927  0.10963188  0.93622807     0.35300
C1022       C  0.28130783  0.14359944  0.94906971    -0.26700
C1023       C  0.23397891  0.13497468  0.94200132    -0.15900
C1024       C  0.21831895  0.08968667  0.93097970     0.36400
N1025       N  0.17171892  0.07957514  0.91758844    -0.90100
H1026       H  0.23567988  0.02099804  0.91689051     0.17500
H1027       H  0.29425391  0.17719585  0.96059219     0.17500
N1028       N  0.36014146  0.12142782  0.93497595    -0.89200
H1029       H  0.15874547  0.05369393  0.93744255     0.34900
H1030       H  0.17152284  0.06680727  0.88362438     0.40000
H1031       H  0.37076463  0.11784089  0.90113051     0.39600
H1032       H  0.37768443  0.09803961  0.95422468     0.34500
C1033       C  0.06074957  0.95685797  0.84050821    -0.27200
C1034       C  0.06236085  0.96305795  0.79372609    -0.15300
C1035       C  0.07580075  0.00578069  0.77749997     0.35300
C1036       C  0.08325888  0.04323552  0.80893915    -0.26700
C1037       C  0.07902080  0.03751835  0.85631248    -0.15900
C1038       C  0.07020015  0.99280834  0.87188437     0.36400
N1039       N  0.06997881  0.98330609  0.91963904    -0.90100
H1040       H  0.05315864  0.92318045  0.85304087     0.17500
H1041       H  0.09085930  0.07675386  0.79623677     0.17500
N1042       N  0.08104659  0.01120255  0.72944998    -0.89200
H1043       H  0.09393751  0.95839747  0.92565197     0.34900
H1044       H  0.03743141  0.96988878  0.92728648     0.40000
H1045       H  0.11472023  0.02307720  0.72432305     0.39600
H1046       H  0.05894754  0.03629436  0.71911895     0.34500
C1047       C  0.02113451  0.38797891  0.82267283    -0.27200
C1048       C  0.05583527  0.38505116  0.79057608    -0.15300
C1049       C  0.09997834  0.39059564  0.81038038     0.35300
C1050       C  0.10924550  0.36489267  0.84911262    -0.26700
C1051       C  0.07159048  0.34697392  0.87271682    -0.15900
C1052       C  0.02734962  0.36403913  0.86270260     0.36400
N1053       N  0.98813625  0.35444125  0.88966078    -0.90100
H1054       H  0.98678486  0.39580337  0.81155453     0.17500
H1055       H  0.14409639  0.35773019  0.85933957     0.17500
N1056       N  0.13560299  0.41129635  0.78495294    -0.89200
H1057       H  0.99474138  0.36805705  0.92283490     0.34900
H1058       H  0.98292978  0.31909518  0.89042060     0.40000
H1059       H  0.15890610  0.38623816  0.77664509     0.39600
H1060       H  0.15190393  0.43677338  0.80612214     0.34500
C1061       C  0.96798566  0.03676484  0.79349194    -0.27200
C1062       C  0.96362395  0.05039664  0.74850242    -0.15300
C1063       C  0.98507596  0.09216616  0.73746573     0.35300
C1064       C  0.99721797  0.12472561  0.77277084    -0.26700
C1065       C  0.98744446  0.11528984  0.81832301    -0.15900
C1066       C  0.97417232  0.07016307  0.82865806     0.36400
N1067       N  0.96479858  0.05832639  0.87449490    -0.90100
H1068       H  0.95468223  0.00332230  0.80228915     0.17500
H1069       H  0.01069455  0.15813464  0.76435539     0.17500
N1070       N  0.98776035  0.10379365  0.69054242    -0.89200
H1071       H  0.98464603  0.03069110  0.88258900     0.34900
H1072       H  0.93031188  0.04728732  0.87530423     0.40000
H1073       H  0.02216106  0.11189246  0.68396776     0.39600
H1074       H  0.96893512  0.13307387  0.68610225     0.34500
C1075       C  0.17690537  0.00219588  0.00513639    -0.27200
C1076       C  0.19246241  0.04145727  0.03136637    -0.15300
C1077       C  0.23934323  0.04563254  0.04470126     0.35300
C1078       C  0.26913145  0.01063569  0.03176682    -0.26700
C1079       C  0.25323011  0.97321571  0.00334872    -0.15900
C1080       C  0.20696559  0.96966265  0.98944998     0.36400
N1081       N  0.19017122  0.93235511  0.95971479    -0.90100
H1082       H  0.14127992  0.99745160  0.99402466     0.17500
H1083       H  0.30449502  0.01239987  0.04422964     0.17500
N1084       N  0.25663587  0.08457153  0.07171823    -0.89200
H1085       H  0.17660434  0.94587176  0.92998176     0.34900
H1086       H  0.16356821  0.91511642  0.97602539     0.40000
H1087       H  0.28282519  0.10044807  0.05359799     0.39600
H1088       H  0.27104820  0.07307629  0.10202762     0.34500
C1089       C  0.86257890  0.38854052  0.02788101    -0.27200
C1090       C  0.83004117  0.38620675  0.99192256    -0.15300
C1091       C  0.85135667  0.38777451  0.94923228     0.35300
C1092       C  0.88616574  0.35639481  0.94123978    -0.26700
C1093       C  0.90648821  0.33724677  0.97948606    -0.15900
C1094       C  0.89885518  0.35826172  0.02331902     0.36400
N1095       N  0.92447358  0.34616372  0.06289203    -0.90100
H1096       H  0.85288425  0.40059741  0.06170546     0.17500
H1097       H  0.89568550  0.34583311  0.90717362     0.17500
N1098       N  0.83127767  0.41138135  0.91290438    -0.89200
H1099       H  0.90138746  0.33212670  0.08572351     0.34900
H1100       H  0.93915478  0.37624884  0.07811704     0.40000
H1101       H  0.83320720  0.44617223  0.92237428     0.39600
H1102       H  0.79648356  0.40150329  0.91025800     0.34500
C1103       C  0.84515385  0.97281235  0.96717256    -0.27200
C1104       C  0.86606105  0.94094404  0.99488414    -0.15300
C1105       C  0.90881129  0.95133858  0.01602054     0.35300
C1106       C  0.93058345  0.99303509  0.00873133    -0.26700
C1107       C  0.91109277  0.02479792  0.97968426    -0.15900
C1108       C  0.86731580  0.01519237  0.95981789     0.36400
N1109       N  0.84627640  0.04718935  0.93105681    -0.90100
H1110       H  0.81229152  0.96422462  0.95031260     0.17500
H1111       H  0.96354964  0.00017628  0.02583140     0.17500
N1112       N  0.93082484  0.91907754  0.04398750    -0.89200
H1113       H  0.81462586  0.05525996  0.94493300     0.34900
H1114       H  0.83997264  0.03113865  0.89880198     0.40000
H1115       H  0.93719283  0.93446534  0.07654111     0.39600
H1116       H  0.96251792  0.91179432  0.02975679     0.34500
loop_ 
_geom_bond_atom_site_label_1 
_geom_bond_atom_site_label_2 
_geom_bond_distance 
_geom_bond_site_symmetry_2 
_ccdc_geom_bond_type 
C1            N2   1.357       .  A
C1            N6   1.395   1_554  A
C1          C301   1.505       .  S
N2            C3   1.344   1_554  A
C3            N4   1.336       .  A
C3         C1104   1.454       .  S
N4            C5   1.352       .  A
C5            N6   1.390       .  A
C5          C559   1.512       .  S
C7            N8   1.400   1_554  A
C7           N12   1.353       .  A
C7          C222   1.523       .  S
N8            C9   1.397       .  A
C9           N10   1.345       .  A
C9          C493   1.522       .  S
N10          C11   1.351       .  A
C11          N12   1.353   1_556  A
C11        C1090   1.499       .  S
C13          N14   1.346       .  A
C13          N18   1.380   1_554  A
C13         C169   1.484       .  S
N14          C15   1.339   1_554  A
C15          N16   1.357       .  A
C15        C1079   1.459   1_556  S
N16          C17   1.365       .  A
C17          N18   1.381       .  A
C17         C427   1.501       .  S
C19          N20   1.379       .  A
C19          N24   1.341       .  A
C19         C491   1.485       .  S
N20          C21   1.383   1_545  A
C21          N22   1.358   1_565  A
C21         C558   1.483       .  S
N22          C23   1.352       .  A
C23          N24   1.343       .  A
C23        C1062   1.456       .  S
C25          N26   1.352       .  A
C25          N30   1.397       .  A
C25         C492   1.513   1_455  S
N26          C27   1.352       .  A
C27          N28   1.352       .  A
C27        C1048   1.492       .  S
N28          C29   1.349       .  A
C29          N30   1.395       .  A
C29         C361   1.520       .  S
C31          N32   1.357       .  A
C31          N36   1.386       .  A
C31         C557   1.507   1_455  S
N32          C33   1.352       .  A
C33          N34   1.343       .  A
C33        C1034   1.455       .  S
N34          C35   1.351       .  A
C35          N36   1.384       .  A
C35         C426   1.493       .  S
C37          N38   1.338       .  A
C37          N42   1.373       .  A
C37         C359   1.470       .  S
N38          C39   1.343       .  A
C39          N40   1.361       .  A
C39        C1020   1.462       .  S
N40          C41   1.364       .  A
C41          N42   1.378       .  A
C41         C425   1.488   1_545  S
C43          N44   1.396   1_655  A
C43          N48   1.367       .  A
C43         C293   1.530       .  S
N44          C45   1.397       .  A
C45          N46   1.368       .  A
C45         C176   1.532       .  S
N46          C47   1.350       .  A
C47          N48   1.342   1_455  A
C47        C1009   1.497       .  S
C49          N50   1.338       .  A
C49          N54   1.387       .  A
C49         C221   1.497       .  S
N50          C51   1.346       .  A
C51          N52   1.349       .  A
C51         C995   1.451       .  S
N52          C53   1.356       .  A
C53          N54   1.388       .  A
C53         C308   1.496   1_545  S
C55          N56   1.397       .  A
C55          N60   1.346       .  A
C55         C223   1.528   1_455  S
N56          C57   1.402       .  A
C57          N58   1.356       .  A
C57         C104   1.523       .  S
N58          C59   1.354       .  A
C59          N60   1.351       .  A
C59         C981   1.505       .  S
Zr61         O62   2.427       .  S
Zr61         O63   2.525       .  S
Zr61         O64   2.558       .  S
Zr61         O67   2.511       .  S
Zr61         O69   2.366       .  S
Zr61         O70   2.387       .  S
Zr61         O71   2.428       .  S
Zr61         O72   2.418       .  S
O62         H118   0.989       .  S
O62         H126   0.988       .  S
O63          C83   1.305       .  A
O64          C85   1.311       .  A
O65         Zr75   2.450       .  S
O65          C84   1.283       .  A
O66         Zr74   2.424       .  S
O66          C85   1.279       .  A
O67          C84   1.306       .  A
O68         Zr76   2.412       .  S
O68          C83   1.266       .  A
O69         Zr74   2.425       .  S
O69         Zr76   2.392       .  S
O70         Zr75   2.416       .  S
O70         Zr76   2.378       .  S
O70         H105   0.966       .  S
O71         Zr74   2.404       .  S
O71         Zr91   2.396       .  S
O71         H108   0.962       .  S
O72         Zr75   2.411       .  S
O72         Zr91   2.403       .  S
Zr73         O98   2.408       .  S
Zr73         O92   2.475       .  S
Zr73        O100   2.560       .  S
Zr73         O88   2.535       .  S
Zr73         O79   2.407       .  S
Zr73         O80   2.428       .  S
Zr73         O81   2.392       .  S
Zr73         O82   2.406       .  S
Zr74         O93   2.439       .  S
Zr74         O86   2.437       .  S
Zr74         O87   2.452       .  S
Zr74         O80   2.401       .  S
Zr74         O81   2.391       .  S
Zr75         O77   2.436       .  S
Zr75         O99   2.439       .  S
Zr75        O101   2.462       .  S
Zr75         O79   2.400       .  S
Zr75         O82   2.412       .  S
Zr76        O102   2.450       .  S
Zr76        O103   2.425       .  S
Zr76         O78   2.434       .  S
Zr76         O79   2.386       .  S
Zr76         O80   2.413       .  S
O77         H114   0.990       .  S
O78         H109   0.990       .  S
O78         H123   0.987       .  S
O80         H106   0.959       .  S
O81         Zr91   2.377       .  S
O82         Zr91   2.391       .  S
O82         H107   0.966       .  S
C83         C643   1.502       .  S
C84         C667   1.491       .  S
C85         C629   1.506       .  S
O86         H122   0.990       .  S
O87          C89   1.283       .  A
O88          C89   1.304       .  A
C89         C331   1.503       .  S
O90         Zr91   2.438       .  S
O90         H119   0.991       .  S
Zr91         O94   2.439       .  S
Zr91         O95   2.442       .  S
Zr91         O96   2.420       .  S
O92          C97   1.295       .  A
O93         H110   0.990       .  S
O93         H125   0.989       .  S
O94         H111   0.990       .  S
O95         H115   0.990       .  S
O95         H124   0.989       .  S
O96          C97   1.273       .  A
C97         C127   1.476       .  S
O98         H117   0.989       .  S
O98         H121   0.988       .  S
O99         H113   0.990       .  S
O99         H120   0.990       .  S
O100        C104   1.310       .  A
O101        C104   1.287       .  A
O102        H112   0.990       .  S
O103        H116   0.991       .  S
C127        N128   1.344       .  A
C127        N132   1.381       .  A
N128        C129   1.342       .  A
C129        N130   1.348       .  A
C129        C964   1.462       .  S
N130        C131   1.361       .  A
C131        N132   1.381       .  A
C131        C161   1.492   1_545  S
Zr133       O134   2.450       .  S
Zr133       O135   2.451       .  S
Zr133       O136   2.468       .  S
Zr133       O139   2.438       .  S
Zr133       O141   2.372       .  S
Zr133       O142   2.390       .  S
Zr133       O143   2.408       .  S
Zr133       O144   2.399       .  S
O134        H190   0.990       .  S
O134        H198   0.989       .  S
O135        C155   1.290       .  A
O136        C157   1.292       .  A
O137       Zr147   2.534       .  S
O137        C156   1.301       .  A
O138       Zr146   2.472       .  S
O138        C157   1.288       .  A
O139        C156   1.288       .  A
O140       Zr148   2.446       .  S
O140        C155   1.277       .  A
O141       Zr146   2.429       .  S
O141       Zr148   2.401       .  S
O142       Zr147   2.423       .  S
O142       Zr148   2.380       .  S
O142        H177   0.966       .  S
O143       Zr146   2.417       .  S
O143       Zr163   2.400       .  S
O143        H180   0.964       .  S
O144       Zr147   2.401       .  S
O144       Zr163   2.378       .  S
Zr145       O170   2.446       .  S
Zr145       O164   2.484       .  S
Zr145       O172   2.449       .  S
Zr145       O160   2.445       .  S
Zr145       O151   2.411       .  S
Zr145       O152   2.424       .  S
Zr145       O153   2.364       .  S
Zr145       O154   2.386       .  S
Zr146       O165   2.438       .  S
Zr146       O158   2.433       .  S
Zr146       O159   2.501       .  S
Zr146       O152   2.402       .  S
Zr146       O153   2.403       .  S
Zr147       O149   2.435       .  S
Zr147       O171   2.436       .  S
Zr147       O173   2.543       .  S
Zr147       O151   2.397       .  S
Zr147       O154   2.430       .  S
Zr148       O174   2.435       .  S
Zr148       O175   2.441       .  S
Zr148       O150   2.437       .  S
Zr148       O151   2.399       .  S
Zr148       O152   2.393       .  S
O149        H186   0.990       .  S
O150        H181   0.991       .  S
O150        H195   0.990       .  S
O152        H178   0.961       .  S
O153       Zr163   2.398       .  S
O154       Zr163   2.396       .  S
O154        H179   0.966       .  S
C155        C661   1.488       .  S
C156        C645   1.513       .  S
C157        C639   1.491       .  S
O158        H194   0.990       .  S
O159        C161   1.294       .  A
O160        C161   1.289       .  A
O162       Zr163   2.437       .  S
O162        H191   0.990       .  S
Zr163       O166   2.436       .  S
Zr163       O167   2.438       .  S
Zr163       O168   2.407       .  S
O164        C169   1.296       .  A
O165        H182   0.990       .  S
O165        H197   0.990       .  S
O166        H183   0.990       .  S
O167        H187   0.990       .  S
O167        H196   0.990       .  S
O168        C169   1.273       .  A
O170        H189   0.991       .  S
O170        H193   0.990       .  S
O171        H185   0.990       .  S
O171        H192   0.990       .  S
O172        C176   1.290       .  A
O173        C176   1.302       .  A
O174        H184   0.990       .  S
O175        H188   0.990       .  S
Zr199       O200   2.432       .  S
Zr199       O201   2.548       .  S
Zr199       O202   2.570       .  S
Zr199       O205   2.548       .  S
Zr199       O207   2.390       .  S
Zr199       O208   2.398       .  S
Zr199       O209   2.439       .  S
Zr199       O210   2.434       .  S
O200        H256   0.989       .  S
O200        H264   0.985       .  S
O201        C221   1.314       .  A
O202        C223   1.309       .  A
O203       Zr213   2.458       .  S
O203        C222   1.288       .  A
O204       Zr212   2.456       .  S
O204        C223   1.286       .  A
O205        C222   1.303       .  A
O206       Zr214   2.397       .  S
O206        C221   1.272       .  A
O207       Zr212   2.388       .  S
O207       Zr214   2.400       .  S
O208       Zr213   2.386       .  S
O208       Zr214   2.392       .  S
O208        H243   0.966       .  S
O209       Zr212   2.406       .  S
O209       Zr229   2.429       .  S
O209        H246   0.965       .  S
O210       Zr213   2.394       .  S
O210       Zr229   2.417       .  S
Zr211       O236   2.437       .  S
Zr211       O230   2.525       .  S
Zr211       O238   2.522       .  S
Zr211       O226   2.526       .  S
Zr211       O217   2.426       .  S
Zr211       O218   2.423       .  S
Zr211       O219   2.375       .  S
Zr211       O220   2.388       .  S
Zr212       O231   2.438       .  S
Zr212       O224   2.437       .  S
Zr212       O225   2.423       .  S
Zr212       O218   2.402       .  S
Zr212       O219   2.421       .  S
Zr213       O215   2.435       .  S
Zr213       O237   2.439       .  S
Zr213       O239   2.434       .  S
Zr213       O217   2.403       .  S
Zr213       O220   2.418       .  S
Zr214       O240   2.435       .  S
Zr214       O241   2.437       .  S
Zr214       O216   2.439       .  S
Zr214       O217   2.399       .  S
Zr214       O218   2.378       .  S
O215        H252   0.990       .  S
O216        H247   0.990       .  S
O216        H261   0.990       .  S
O218        H244   0.965       .  S
O219       Zr229   2.375       .  S
O220       Zr229   2.356       .  S
O220        H245   0.966       .  S
O224        H260   0.990       .  S
O225        C227   1.280       .  A
O226        C227   1.306       .  A
C227        C655   1.491       .  S
O228       Zr229   2.426       .  S
O228        H257   0.989       .  S
Zr229       O232   2.429       .  S
Zr229       O233   2.442       .  S
Zr229       O234   2.470       .  S
O230        C235   1.304       .  A
O231        H248   0.990       .  S
O231        H263   0.990       .  S
O232        H249   0.990       .  S
O233        H253   0.990       .  S
O233        H262   0.989       .  S
O234        C235   1.286       .  A
C235        C631   1.535       .  S
O236        H255   0.990       .  S
O236        H259   0.989       .  S
O237        H251   0.990       .  S
O237        H258   0.990       .  S
O238        C242   1.306       .  A
O239        C242   1.282       .  A
O240        H250   0.990       .  S
O241        H254   0.990       .  S
C242        C625   1.496       .  S
Zr265       O266   2.439       .  S
Zr265       O267   2.519       .  S
Zr265       O268   2.502       .  S
Zr265       O271   2.519       .  S
Zr265       O273   2.400       .  S
Zr265       O274   2.380       .  S
Zr265       O275   2.435       .  S
Zr265       O276   2.418       .  S
O266        H322   0.990       .  S
O266        H330   0.990       .  S
O267        C287   1.300       .  A
O268        C289   1.303       .  A
O269       Zr279   2.446       .  S
O269        C288   1.282       .  A
O270       Zr278   2.498       .  S
O270        C289   1.295       .  A
O271        C288   1.305       .  A
O272       Zr280   2.467       .  S
O272        C287   1.287       .  A
O273       Zr278   2.440       .  S
O273       Zr280   2.379       .  S
O274       Zr279   2.415       .  S
O274       Zr280   2.376       .  S
O274        H309   0.966       .  S
O275       Zr278   2.429       .  S
O275       Zr295   2.393       .  S
O275        H312   0.964       .  S
O276       Zr279   2.416       .  S
O276       Zr295   2.420       .  S
Zr277       O302   2.442       .  S
Zr277       O296   2.475       .  S
Zr277       O304   2.459       .  S
Zr277       O292   2.412       .  S
Zr277       O283   2.408       .  S
Zr277       O284   2.419       .  S
Zr277       O285   2.374       .  S
Zr277       O286   2.368       .  S
Zr278       O297   2.438       .  S
Zr278       O290   2.435       .  S
Zr278       O291   2.560       .  S
Zr278       O284   2.405       .  S
Zr278       O285   2.411       .  S
Zr279       O281   2.437       .  S
Zr279       O303   2.438       .  S
Zr279       O305   2.474       .  S
Zr279       O283   2.394       .  S
Zr279       O286   2.406       .  S
Zr280       O306   2.436       .  S
Zr280       O307   2.436       .  S
Zr280       O282   2.438       .  S
Zr280       O283   2.422       .  S
Zr280       O284   2.398       .  S
O281        H318   0.990       .  S
O282        H313   0.990       .  S
O282        H327   0.989       .  S
O284        H310   0.964       .  S
O285       Zr295   2.389       .  S
O286       Zr295   2.393       .  S
O286        H311   0.966       .  S
C287        C649   1.529       .  S
C288        C637   1.509       .  S
C289        C633   1.511       .  S
O290        H326   0.990       .  S
O291        C293   1.304       .  A
O292        C293   1.284       .  A
O294       Zr295   2.437       .  S
O294        H323   0.990       .  S
Zr295       O298   2.437       .  S
Zr295       O299   2.438       .  S
Zr295       O300   2.459       .  S
O296        C301   1.295       .  A
O297        H314   0.990       .  S
O297        H329   0.990       .  S
O298        H315   0.990       .  S
O299        H319   0.990       .  S
O299        H328   0.989       .  S
O300        C301   1.283       .  A
O302        H321   0.990       .  S
O302        H325   0.990       .  S
O303        H317   0.990       .  S
O303        H324   0.989       .  S
O304        C308   1.287       .  A
O305        C308   1.289       .  A
O306        H316   0.991       .  S
O307        H320   0.990       .  S
C331        N332   1.344       .  A
C331        N336   1.387   1_554  A
N332        C333   1.349       .  A
C333        N334   1.355   1_554  A
C333        C950   1.496       .  S
N334        C335   1.357       .  A
C335        N336   1.392       .  A
C335        C360   1.504       .  S
Zr337       O338   2.428       .  S
Zr337       O339   2.487       .  S
Zr337       O340   2.530       .  S
Zr337       O343   2.527       .  S
Zr337       O345   2.393       .  S
Zr337       O346   2.397       .  S
Zr337       O347   2.430       .  S
Zr337       O348   2.413       .  S
O338        H394   0.990       .  S
O338        H402   0.989       .  S
O339        C359   1.297       .  A
O340        C361   1.300       .  A
O341       Zr351   2.445       .  S
O341        C360   1.284       .  A
O342       Zr350   2.488       .  S
O342        C361   1.296       .  A
O343        C360   1.304       .  A
O344       Zr352   2.395       .  S
O344        C359   1.269       .  A
O345       Zr350   2.412       .  S
O345       Zr352   2.385       .  S
O346       Zr351   2.406       .  S
O346       Zr352   2.389       .  S
O346        H381   0.965       .  S
O347       Zr350   2.430       .  S
O347       Zr367   2.411       .  S
O347        H384   0.963       .  S
O348       Zr351   2.396       .  S
O348       Zr367   2.391       .  S
Zr349       O374   2.414       .  S
Zr349       O368   2.519       .  S
Zr349       O376   2.480       .  S
Zr349       O364   2.505       .  S
Zr349       O355   2.417       .  S
Zr349       O356   2.428       .  S
Zr349       O357   2.374       .  S
Zr349       O358   2.376       .  S
Zr350       O369   2.434       .  S
Zr350       O362   2.436       .  S
Zr350       O363   2.528       .  S
Zr350       O356   2.405       .  S
Zr350       O357   2.425       .  S
Zr351       O353   2.438       .  S
Zr351       O375   2.441       .  S
Zr351       O377   2.443       .  S
Zr351       O355   2.401       .  S
Zr351       O358   2.417       .  S
Zr352       O378   2.433       .  S
Zr352       O379   2.445       .  S
Zr352       O354   2.452       .  S
Zr352       O355   2.399       .  S
Zr352       O356   2.375       .  S
O353        H390   0.989       .  S
O354        H385   0.990       .  S
O354        H399   0.990       .  S
O356        H382   0.959       .  S
O357       Zr367   2.400       .  S
O358       Zr367   2.367       .  S
O358        H383   0.966       .  S
O362        H398   0.990       .  S
O363        C365   1.302       .  A
O364        C365   1.300       .  A
C365        C669   1.524       .  S
O366       Zr367   2.421       .  S
O366        H395   0.990       .  S
Zr367       O370   2.433       .  S
Zr367       O371   2.440       .  S
Zr367       O372   2.427       .  S
O368        C373   1.303       .  A
O369        H386   0.989       .  S
O369        H401   0.989       .  S
O370        H387   0.989       .  S
O371        H391   0.990       .  S
O371        H400   0.990       .  S
O372        C373   1.274       .  A
C373        C607   1.504       .  S
O374        H393   0.989       .  S
O374        H397   0.988       .  S
O375        H389   0.989       .  S
O375        H396   0.990       .  S
O376        C380   1.296       .  A
O377        C380   1.282       .  A
O378        H388   0.990       .  S
O379        H392   0.989       .  S
C380        C617   1.479       .  S
Zr403       O404   2.442       .  S
Zr403       O405   2.486       .  S
Zr403       O406   2.431       .  S
Zr403       O409   2.444       .  S
Zr403       O411   2.374       .  S
Zr403       O412   2.380       .  S
Zr403       O413   2.415       .  S
Zr403       O414   2.415       .  S
O404        H460   0.990       .  S
O404        H468   0.991       .  S
O405        C425   1.294       .  A
O406        C427   1.285       .  A
O407       Zr417   2.477       .  S
O407        C426   1.288       .  A
O408       Zr416   2.509       .  S
O408        C427   1.297       .  A
O409        C426   1.288       .  A
O410       Zr418   2.425       .  S
O410        C425   1.279       .  A
O411       Zr416   2.396       .  S
O411       Zr418   2.384       .  S
O412       Zr417   2.405       .  S
O412       Zr418   2.383       .  S
O412        H447   0.966       .  S
O413       Zr416   2.394       .  S
O413       Zr433   2.414       .  S
O413        H450   0.966       .  S
O414       Zr417   2.402       .  S
O414       Zr433   2.419       .  S
Zr415       O440   2.441       .  S
Zr415       O434   2.531       .  S
Zr415       O442   2.505       .  S
Zr415       O430   2.498       .  S
Zr415       O421   2.412       .  S
Zr415       O422   2.426       .  S
Zr415       O423   2.392       .  S
Zr415       O424   2.385       .  S
Zr416       O435   2.437       .  S
Zr416       O428   2.436       .  S
Zr416       O429   2.457       .  S
Zr416       O422   2.418       .  S
Zr416       O423   2.426       .  S
Zr417       O419   2.437       .  S
Zr417       O441   2.438       .  S
Zr417       O443   2.456       .  S
Zr417       O421   2.406       .  S
Zr417       O424   2.415       .  S
Zr418       O444   2.437       .  S
Zr418       O445   2.436       .  S
Zr418       O420   2.439       .  S
Zr418       O421   2.393       .  S
Zr418       O422   2.393       .  S
O419        H456   0.990       .  S
O420        H451   0.990       .  S
O420        H465   0.990       .  S
O422        H448   0.965       .  S
O423       Zr433   2.379       .  S
O424       Zr433   2.381       .  S
O424        H449   0.966       .  S
O428        H464   0.990       .  S
O429        C431   1.287       .  A
O430        C431   1.301       .  A
C431        C605   1.491       .  S
O432       Zr433   2.437       .  S
O432        H461   0.990       .  S
Zr433       O436   2.437       .  S
Zr433       O437   2.438       .  S
Zr433       O438   2.466       .  S
O434        C439   1.303       .  A
O435        H452   0.990       .  S
O435        H467   0.990       .  S
O436        H453   0.990       .  S
O437        H457   0.990       .  S
O437        H466   0.990       .  S
O438        C439   1.287       .  A
C439        C609   1.531       .  S
O440        H459   0.988       .  S
O440        H463   0.990       .  S
O441        H455   0.990       .  S
O441        H462   0.990       .  S
O442        C446   1.301       .  A
O443        C446   1.284       .  A
O444        H454   0.990       .  S
O445        H458   0.990       .  S
C446        C665   1.502       .  S
Zr469       O470   2.409       .  S
Zr469       O471   2.511       .  S
Zr469       O472   2.550       .  S
Zr469       O475   2.552       .  S
Zr469       O477   2.391       .  S
Zr469       O478   2.398       .  S
Zr469       O479   2.441       .  S
Zr469       O480   2.420       .  S
O470        H526   0.988       .  S
O470        H534   0.989       .  S
O471        C491   1.302       .  A
O472        C493   1.306       .  A
O473       Zr483   2.453       .  S
O473        C492   1.283       .  A
O474       Zr482   2.465       .  S
O474        C493   1.285       .  A
O475        C492   1.310       .  A
O476       Zr484   2.406       .  S
O476        C491   1.272       .  A
O477       Zr482   2.411       .  S
O477       Zr484   2.396       .  S
O478       Zr483   2.386       .  S
O478       Zr484   2.374       .  S
O478        H513   0.966       .  S
O479       Zr482   2.409       .  S
O479       Zr499   2.428       .  S
O479        H516   0.964       .  S
O480       Zr483   2.407       .  S
O480       Zr499   2.402       .  S
Zr481       O506   2.425       .  S
Zr481       O500   2.515       .  S
Zr481       O508   2.487       .  S
Zr481       O496   2.490       .  S
Zr481       O487   2.428       .  S
Zr481       O488   2.429       .  S
Zr481       O489   2.368       .  S
Zr481       O490   2.379       .  S
Zr482       O501   2.433       .  S
Zr482       O494   2.436       .  S
Zr482       O495   2.464       .  S
Zr482       O488   2.405       .  S
Zr482       O489   2.405       .  S
Zr483       O485   2.436       .  S
Zr483       O507   2.440       .  S
Zr483       O509   2.442       .  S
Zr483       O487   2.401       .  S
Zr483       O490   2.416       .  S
Zr484       O510   2.435       .  S
Zr484       O511   2.436       .  S
Zr484       O486   2.440       .  S
Zr484       O487   2.408       .  S
Zr484       O488   2.357       .  S
O485        H522   0.990       .  S
O486        H517   0.990       .  S
O486        H531   0.990       .  S
O488        H514   0.960       .  S
O489       Zr499   2.389       .  S
O490       Zr499   2.366       .  S
O490        H515   0.966       .  S
O494        H530   0.990       .  S
O495        C497   1.287       .  A
O496        C497   1.298       .  A
C497        C613   1.486       .  S
O498       Zr499   2.425       .  S
O498        H527   0.990       .  S
Zr499       O502   2.431       .  S
Zr499       O503   2.436       .  S
Zr499       O504   2.439       .  S
O500        C505   1.302       .  A
O501        H518   0.990       .  S
O501        H533   0.990       .  S
O502        H519   0.991       .  S
O503        H523   0.990       .  S
O503        H532   0.990       .  S
O504        C505   1.276       .  A
C505        C619   1.513       .  S
O506        H525   0.987       .  S
O506        H529   0.990       .  S
O507        H521   0.990       .  S
O507        H528   0.990       .  S
O508        C512   1.299       .  A
O509        C512   1.283       .  A
O510        H520   0.990       .  S
O511        H524   0.990       .  S
C512        C659   1.489       .  S
Zr535       O536   2.444       .  S
Zr535       O537   2.503       .  S
Zr535       O538   2.453       .  S
Zr535       O541   2.464       .  S
Zr535       O543   2.380       .  S
Zr535       O544   2.374       .  S
Zr535       O545   2.428       .  S
Zr535       O546   2.414       .  S
O536        H592   0.991       .  S
O536        H600   0.991       .  S
O537        C557   1.299       .  A
O538        C559   1.294       .  A
O539       Zr549   2.455       .  S
O539        C558   1.287       .  A
O540       Zr548   2.506       .  S
O540        C559   1.292       .  A
O541        C558   1.288       .  A
O542       Zr550   2.442       .  S
O542        C557   1.280       .  A
O543       Zr548   2.424       .  S
O543       Zr550   2.392       .  S
O544       Zr549   2.392       .  S
O544       Zr550   2.382       .  S
O544        H579   0.966       .  S
O545       Zr548   2.413       .  S
O545       Zr565   2.393       .  S
O545        H582   0.963       .  S
O546       Zr549   2.383       .  S
O546       Zr565   2.411       .  S
Zr547       O572   2.449       .  S
Zr547       O566   2.549       .  S
Zr547       O574   2.523       .  S
Zr547       O562   2.508       .  S
Zr547       O553   2.418       .  S
Zr547       O554   2.429       .  S
Zr547       O555   2.389       .  S
Zr547       O556   2.392       .  S
Zr548       O567   2.438       .  S
Zr548       O560   2.433       .  S
Zr548       O561   2.499       .  S
Zr548       O554   2.419       .  S
Zr548       O555   2.418       .  S
Zr549       O551   2.436       .  S
Zr549       O573   2.439       .  S
Zr549       O575   2.419       .  S
Zr549       O553   2.408       .  S
Zr549       O556   2.415       .  S
Zr550       O576   2.437       .  S
Zr550       O577   2.438       .  S
Zr550       O552   2.441       .  S
Zr550       O553   2.404       .  S
Zr550       O554   2.398       .  S
O551        H588   0.990       .  S
O552        H583   0.990       .  S
O552        H597   0.990       .  S
O554        H580   0.963       .  S
O555       Zr565   2.390       .  S
O556       Zr565   2.372       .  S
O556        H581   0.966       .  S
O560        H596   0.990       .  S
O561        C563   1.297       .  A
O562        C563   1.299       .  A
C563        C623   1.514       .  S
O564       Zr565   2.438       .  S
O564        H593   0.990       .  S
Zr565       O568   2.434       .  S
Zr565       O569   2.439       .  S
Zr565       O570   2.445       .  S
O566        C571   1.307       .  A
O567        H584   0.990       .  S
O567        H599   0.989       .  S
O568        H585   0.989       .  S
O569        H589   0.990       .  S
O569        H598   0.990       .  S
O570        C571   1.283       .  A
C571        C601   1.533       .  S
O572        H591   0.990       .  S
O572        H595   0.988       .  S
O573        H587   0.991       .  S
O573        H594   0.990       .  S
O574        C578   1.308       .  A
O575        C578   1.275       .  A
O576        H586   0.990       .  S
O577        H590   0.990       .  S
C578        C651   1.492       .  S
C601        N602   1.370       .  A
C601        N606   1.388       .  A
N602        C603   1.371       .  A
C603        N604   1.339       .  A
C603        C936   1.470       .  S
N604        C605   1.337       .  A
C605        N606   1.382       .  A
C607        N608   1.384       .  A
C607        N612   1.328       .  A
N608        C609   1.396       .  A
C609        N610   1.383       .  A
N610        C611   1.370       .  A
C611        N612   1.339       .  A
C611        C922   1.494       .  S
C613        N614   1.358       .  A
C613        N618   1.379       .  A
N614        C615   1.355       .  A
C615        N616   1.347       .  A
C615        C908   1.489       .  S
N616        C617   1.344       .  A
C617        N618   1.376       .  A
C619        N620   1.349       .  A
C619        N624   1.393       .  A
N620        C621   1.346       .  A
C621        N622   1.351       .  A
C621        C894   1.469       .  S
N622        C623   1.352       .  A
C623        N624   1.394       .  A
C625        N626   1.349       .  A
C625        N630   1.385       .  A
N626        C627   1.347       .  A
C627        N628   1.359       .  A
C627        C880   1.466       .  S
N628        C629   1.357       .  A
C629        N630   1.387       .  A
C631        N632   1.399       .  A
C631        N636   1.374       .  A
N632        C633   1.389       .  A
C633        N634   1.334       .  A
N634        C635   1.338       .  A
C635        N636   1.365       .  A
C635        C866   1.477       .  S
C637        N638   1.388       .  A
C637        N642   1.346       .  A
N638        C639   1.390       .  A
C639        N640   1.350       .  A
N640        C641   1.340       .  A
C641        N642   1.352       .  A
C641        C852   1.471       .  S
C643        N644   1.393       .  A
C643        N648   1.336       .  A
N644        C645   1.395       .  A
C645        N646   1.366       .  A
N646        C647   1.346       .  A
C647        N648   1.339       .  A
C647        C838   1.471       .  S
C649        N650   1.390       .  A
C649        N654   1.374       .  A
N650        C651   1.382       .  A
C651        N652   1.331       .  A
N652        C653   1.335       .  A
C653        N654   1.369       .  A
C653        C824   1.467       .  S
C655        N656   1.349       .  A
C655        N660   1.386       .  A
N656        C657   1.349       .  A
C657        N658   1.344       .  A
C657        C810   1.465       .  S
N658        C659   1.343       .  A
C659        N660   1.383       .  A
C661        N662   1.346       .  A
C661        N666   1.389       .  A
N662        C663   1.332       .  A
C663        N664   1.345       .  A
C663        C799   1.466       .  S
N664        C665   1.347       .  A
C665        N666   1.390       .  A
C667        N668   1.383       .  A
C667        N672   1.332       .  A
N668        C669   1.392       .  A
C669        N670   1.376       .  A
N670        C671   1.368       .  A
C671        N672   1.335       .  A
C671        C785   1.493       .  S
O673       Zr709   2.475       .  S
O673        C684   1.298       .  A
O674       Zr708   2.464       .  S
O674        C685   1.296       .  A
O675       Zr681   2.381   1_556  S
O675        C686   1.279       .  A
O676       Zr681   2.357       .  S
O676        C687   1.272       .  A
O677       Zr711   2.566       .  S
O677        C687   1.314       .  A
O678       Zr710   2.458       .  S
O678        C686   1.294       .  A
O679       Zr681   2.399       .  S
O679        C685   1.285       .  A
O680       Zr681   2.376   1_656  S
O680        C684   1.281       .  A
Zr681       O682   2.293       .  S
Zr681       O683   2.278   1_554  S
Zr681       O691   2.274   1_455  S
Zr681       O689   2.264   1_554  S
O682       Zr708   2.325       .  S
O682       Zr711   2.338       .  S
O683       Zr709   2.320   1_455  S
O683       Zr710   2.342       .  S
C684       C1107   1.473       .  S
C685       C1076   1.487       .  S
C686       C1037   1.486       .  S
C687       C1006   1.525       .  S
H688        O689   0.956       .  S
O689       Zr708   2.337   1_556  S
O689       Zr710   2.331       .  S
H690        O691   0.959       .  S
O691       Zr709   2.345   1_554  S
O691       Zr711   2.322   1_655  S
O692       Zr708   2.495       .  S
O692        C715   1.303       .  A
O693       Zr709   2.497       .  S
O693        C716   1.304       .  A
O694       Zr710   2.485       .  S
O694        C717   1.302       .  A
O695       Zr711   2.386       .  S
O695        C718   1.279       .  A
O696       Zr711   2.458   1_655  S
O696        C719   1.299       .  A
O697       Zr710   2.409       .  S
O697        C720   1.285   1_455  A
O698       Zr712   2.384   1_556  S
O698        C721   1.277       .  A
O699       Zr712   2.334       .  S
O699        C722   1.269       .  A
O700       Zr710   2.487       .  S
O700        C721   1.301       .  A
O701       Zr711   2.518       .  S
O701        C722   1.308       .  A
O702       Zr708   2.423   1_556  S
O702        C717   1.289       .  A
O703       Zr709   2.474       .  S
O703        C720   1.298       .  A
O704       Zr709   2.416   1_554  S
O704        C719   1.286       .  A
O705       Zr708   2.497       .  S
O705        C718   1.298       .  A
O706       Zr712   2.340       .  S
O706        C715   1.270       .  A
O707       Zr712   2.338   1_656  S
O707        C716   1.269       .  A
Zr708       O714   2.358   1_554  S
Zr708       O726   2.339       .  S
Zr709       O713   2.347   1_556  S
Zr709       O724   2.349   1_655  S
Zr710       O714   2.329       .  S
Zr710       O724   2.365       .  S
Zr711       O713   2.352   1_455  S
Zr711       O726   2.384       .  S
Zr712       O713   2.325   1_455  S
Zr712       O714   2.314   1_554  S
Zr712       O726   2.349       .  S
Zr712       O724   2.319   1_554  S
C715        C953   1.457       .  S
C716       C1093   1.460       .  S
C717       C1023   1.473       .  S
C718        C967   1.467       .  S
C719        C992   1.464       .  S
C720       C1065   1.473       .  S
C721       C1051   1.472       .  S
C722        C978   1.460       .  S
H723        O724   0.965       .  S
H725        O726   0.966       .  S
O727       Zr763   2.450       .  S
O727        C738   1.278       .  A
O728       Zr762   2.366       .  S
O728        C739   1.273       .  A
O729       Zr735   2.496       .  S
O729        C740   1.304       .  A
O730       Zr735   2.432       .  S
O730        C741   1.267       .  A
O731       Zr765   2.407       .  S
O731        C741   1.262       .  A
O732       Zr764   2.475       .  S
O732        C740   1.295       .  A
O733       Zr735   2.460       .  S
O733        C739   1.293       .  A
O734       Zr735   2.459       .  S
O734        C738   1.286       .  A
Zr735       O736   2.384       .  S
Zr735       O737   2.309       .  S
Zr735       O745   2.401       .  S
Zr735       O743   2.356       .  S
O736       Zr762   2.339       .  S
O736       Zr765   2.355       .  S
O737       Zr763   2.345       .  S
O737       Zr764   2.428       .  S
C738        C939   1.499       .  S
C739        C911   1.473       .  S
C740        C925   1.500       .  S
C741        C897   1.458       .  S
H742        O743   0.963       .  S
O743       Zr762   2.384       .  S
O743       Zr764   2.393       .  S
H744        O745   0.955       .  S
O745       Zr763   2.364       .  S
O745       Zr765   2.302       .  S
O746       Zr762   2.457       .  S
O746        C769   1.290       .  A
O747       Zr763   2.415       .  S
O747        C770   1.291       .  A
O748       Zr764   2.473       .  S
O748        C771   1.300       .  A
O749       Zr765   2.372       .  S
O749        C772   1.272       .  A
O750       Zr765   2.448       .  S
O750        C773   1.293       .  A
O751       Zr764   2.456       .  S
O751        C774   1.266       .  A
O752       Zr766   2.386       .  S
O752        C775   1.283       .  A
O753       Zr766   2.387       .  S
O753        C776   1.287       .  A
O754       Zr764   2.495       .  S
O754        C775   1.303       .  A
O755       Zr765   2.460       .  S
O755        C776   1.290       .  A
O756       Zr762   2.420       .  S
O756        C771   1.287       .  A
O757       Zr763   2.396       .  S
O757        C774   1.265       .  A
O758       Zr763   2.395       .  S
O758        C773   1.279       .  A
O759       Zr762   2.471       .  S
O759        C772   1.289       .  A
O760       Zr766   2.408       .  S
O760        C769   1.272       .  A
O761       Zr766   2.419       .  S
O761        C770   1.285       .  A
Zr762       O768   2.340       .  S
Zr762       O780   2.329       .  S
Zr763       O767   2.359       .  S
Zr763       O778   2.375       .  S
Zr764       O768   2.357       .  S
Zr764       O778   2.403       .  S
Zr765       O767   2.279       .  S
Zr765       O780   2.322       .  S
Zr766       O767   2.314       .  S
Zr766       O768   2.376       .  S
Zr766       O780   2.339       .  S
Zr766       O778   2.295       .  S
C769        C883   1.459       .  S
C770        C855   1.477       .  S
C771        C782   1.474       .  S
C772        C813   1.461       .  S
C773        C827   1.471       .  S
C774        C796   1.458       .  S
C775        C841   1.471       .  S
C776        C869   1.479       .  S
H777        O778   0.969       .  S
H779        O780   0.958       .  S
C781        C782   1.411       .  A
C781        C786   1.405       .  A
C781        H788   1.078       .  S
C782        C783   1.400       .  A
C783        C784   1.402       .  A
C783        N790   1.431       .  S
C784        C785   1.415       .  A
C784        H789   1.080       .  S
C785        C786   1.396       .  A
C786        N787   1.429       .  S
N787        H791   1.045       .  S
N787        H792   1.046       .  S
N790        H793   1.045       .  S
N790        H794   1.045       .  S
C795        C796   1.392       .  A
C795        C800   1.363       .  A
C795        H802   1.069       .  S
C796        C797   1.403       .  A
C797        C798   1.403       .  A
C797        N804   1.431       .  S
C798        C799   1.420       .  A
C798        H803   1.083       .  S
C799        C800   1.404       .  A
C800        N801   1.430       .  S
N801        H805   1.045       .  S
N801        H806   1.045       .  S
N804        H807   1.045       .  S
N804        H808   1.046       .  S
C809        C810   1.411       .  A
C809        C814   1.402       .  A
C809        H816   1.084       .  S
C810        C811   1.406       .  A
C811        C812   1.381       .  A
C811        N818   1.434       .  S
C812        C813   1.390       .  A
C812        H817   1.071       .  S
C813        C814   1.414       .  A
C814        N815   1.431       .  S
N815        H819   1.043       .  S
N815        H820   1.045       .  S
N818        H821   1.044       .  S
N818        H822   1.046       .  S
C823        C824   1.409       .  A
C823        C828   1.385       .  A
C823        H830   1.085       .  S
C824        C825   1.415       .  A
C825        C826   1.410       .  A
C825        N832   1.436       .  S
C826        C827   1.414       .  A
C826        H831   1.084       .  S
C827        C828   1.392       .  A
C828        N829   1.430       .  S
N829        H833   1.040       .  S
N829        H834   1.041       .  S
N832        H835   1.044       .  S
N832        H836   1.045       .  S
C837        C838   1.402       .  A
C837        C842   1.406       .  A
C837        H844   1.084       .  S
C838        C839   1.406       .  A
C839        C840   1.393       .  A
C839        N846   1.434       .  S
C840        C841   1.394       .  A
C840        H845   1.074       .  S
C841        C842   1.416       .  A
C842        N843   1.432       .  S
N843        H847   1.046       .  S
N843        H848   1.046       .  S
N846        H849   1.046       .  S
N846        H850   1.045       .  S
C851        C852   1.390       .  A
C851        C856   1.374       .  A
C851        H858   1.084       .  S
C852        C853   1.416       .  A
C853        C854   1.409       .  A
C853        N860   1.432       .  S
C854        C855   1.406       .  A
C854        H859   1.084       .  S
C855        C856   1.418       .  A
C856        N857   1.428       .  S
N857        H861   1.039       .  S
N857        H862   1.045       .  S
N860        H863   1.046       .  S
N860        H864   1.045       .  S
C865        C866   1.404       .  A
C865        C870   1.413       .  A
C865        H872   1.082       .  S
C866        C867   1.418       .  A
C867        C868   1.395       .  A
C867        N874   1.431       .  S
C868        C869   1.390       .  A
C868        H873   1.074       .  S
C869        C870   1.405       .  A
C870        N871   1.428       .  S
N871        H875   1.046       .  S
N871        H876   1.045       .  S
N874        H877   1.041       .  S
N874        H878   1.042       .  S
C879        C880   1.401       .  A
C879        C884   1.374       .  A
C879        H886   1.081       .  S
C880        C881   1.409       .  A
C881        C882   1.408       .  A
C881        N888   1.430       .  S
C882        C883   1.411       .  A
C882        H887   1.083       .  S
C883        C884   1.400       .  A
C884        N885   1.433       .  S
N885        H889   1.042       .  S
N885        H890   1.046       .  S
N888        H891   1.046       .  S
N888        H892   1.046       .  S
C893        C894   1.407       .  A
C893        C898   1.403       .  A
C893        H900   1.084       .  S
C894        C895   1.407       .  A
C895        C896   1.393       .  A
C895        N902   1.435       .  S
C896        C897   1.394       .  A
C896        H901   1.076       .  S
C897        C898   1.398       .  A
C898        N899   1.426       .  S
N899        H903   1.046       .  S
N899        H904   1.043       .  S
N902        H905   1.045       .  S
N902        H906   1.043       .  S
C907        C908   1.400       .  A
C907        C912   1.402       .  A
C907        H914   1.083       .  S
C908        C909   1.406       .  A
C909        C910   1.401       .  A
C909        N916   1.431       .  S
C910        C911   1.404       .  A
C910        H915   1.084       .  S
C911        C912   1.431       .  A
C912        N913   1.432       .  S
N913        H917   1.041       .  S
N913        H918   1.045       .  S
N916        H919   1.045       .  S
N916        H920   1.046       .  S
C921        C922   1.397       .  A
C921        C926   1.417       .  A
C921        H928   1.078       .  S
C922        C923   1.416       .  A
C923        C924   1.404       .  A
C923        N930   1.430       .  S
C924        C925   1.397       .  A
C924        H929   1.068       .  S
C925        C926   1.415       .  A
C926        N927   1.432       .  S
N927        H931   1.045       .  S
N927        H932   1.046       .  S
N930        H933   1.045       .  S
N930        H934   1.043       .  S
C935        C936   1.396       .  A
C935        C940   1.392       .  A
C935        H942   1.086       .  S
C936        C937   1.420       .  A
C937        C938   1.417       .  A
C937        N944   1.438       .  S
C938        C939   1.413       .  A
C938        H943   1.083       .  S
C939        C940   1.409       .  A
C940        N941   1.432       .  S
N941        H945   1.042       .  S
N941        H946   1.040       .  S
N944        H947   1.044       .  S
N944        H948   1.044       .  S
C949        C950   1.407       .  A
C949        C954   1.416       .  A
C949        H956   1.074       .  S
C950        C951   1.403   1_554  A
C951        C952   1.403       .  A
C951        N958   1.429       .  S
C952        C953   1.414   1_556  A
C952        H957   1.084       .  S
C953        C954   1.402       .  A
C954        N955   1.427       .  S
N955        H959   1.036       .  S
N955        H960   1.044       .  S
N958        H961   1.046       .  S
N958        H962   1.045       .  S
C963        C964   1.408       .  A
C963        C968   1.407       .  A
C963        H970   1.084       .  S
C964        C965   1.401       .  A
C965        C966   1.396       .  A
C965        N972   1.436       .  S
C966        C967   1.404       .  A
C966        H971   1.083       .  S
C967        C968   1.407       .  A
C968        N969   1.429       .  S
N969        H973   1.045       .  S
N969        H974   1.046       .  S
N972        H975   1.044   1_545  S
N972        H976   1.044   1_545  S
C977        C978   1.405   1_655  A
C977        C982   1.414       .  A
C977        H984   1.077       .  S
C978        C979   1.421       .  A
C979        C980   1.406       .  A
C979        N986   1.426       .  S
C980        C981   1.397       .  A
C980        H985   1.079       .  S
C981        C982   1.410   1_455  A
C982        N983   1.421       .  S
N983        H987   1.045       .  S
N983        H988   1.045       .  S
N986        H989   1.044       .  S
N986        H990   1.045       .  S
C991        C992   1.405       .  A
C991        C996   1.394       .  A
C991        H998   1.083       .  S
C992        C993   1.406       .  A
C993        C994   1.404       .  A
C993       N1000   1.426       .  S
C994        C995   1.403       .  A
C994        H999   1.084       .  S
C995        C996   1.406       .  A
C996        N997   1.435   1_545  S
N997       H1001   1.046       .  S
N997       H1002   1.046   1_565  S
N1000      H1003   1.046       .  S
N1000      H1004   1.045   1_554  S
C1005      C1006   1.411       .  A
C1005      C1010   1.424   1_545  A
C1005      H1012   1.083   1_455  S
C1006      C1007   1.438   1_545  A
C1007      C1008   1.398       .  A
C1007      N1014   1.436       .  S
C1008      C1009   1.389       .  A
C1008      H1013   1.085       .  S
C1009      C1010   1.422       .  A
C1010      N1011   1.431   1_455  S
N1011      H1015   1.046   1_655  S
N1011      H1016   1.044       .  S
N1014      H1017   1.046       .  S
N1014      H1018   1.046       .  S
C1019      C1020   1.387       .  A
C1019      C1024   1.391       .  A
C1019      H1026   1.085       .  S
C1020      C1021   1.421       .  A
C1021      C1022   1.408       .  A
C1021      N1028   1.430       .  S
C1022      C1023   1.402       .  A
C1022      H1027   1.081       .  S
C1023      C1024   1.412       .  A
C1024      N1025   1.422       .  S
N1025      H1029   1.041       .  S
N1025      H1030   1.046       .  S
N1028      H1031   1.045       .  S
N1028      H1032   1.045       .  S
C1033      C1034   1.389       .  A
C1033      C1038   1.384       .  A
C1033      H1040   1.085       .  S
C1034      C1035   1.405   1_565  A
C1035      C1036   1.410       .  A
C1035      N1042   1.431       .  S
C1036      C1037   1.410       .  A
C1036      H1041   1.083       .  S
C1037      C1038   1.423   1_545  A
C1038      N1039   1.435       .  S
N1039      H1043   1.045       .  S
N1039      H1044   1.046       .  S
N1042      H1045   1.045       .  S
N1042      H1046   1.044       .  S
C1047      C1048   1.396       .  A
C1047      C1052   1.401       .  A
C1047      H1054   1.080   1_455  S
C1048      C1049   1.399       .  A
C1049      C1050   1.413       .  A
C1049      N1056   1.423       .  S
C1050      C1051   1.407       .  A
C1050      H1055   1.082       .  S
C1051      C1052   1.427       .  A
C1052      N1053   1.428   1_455  S
N1053      H1057   1.044       .  S
N1053      H1058   1.044       .  S
N1056      H1059   1.042       .  S
N1056      H1060   1.044       .  S
C1061      C1062   1.395       .  A
C1061      C1066   1.394       .  A
C1061      H1068   1.085       .  S
C1062      C1063   1.409       .  A
C1063      C1064   1.407       .  A
C1063      N1070   1.431       .  S
C1064      C1065   1.405       .  A
C1064      H1069   1.083   1_655  S
C1065      C1066   1.413       .  A
C1066      N1067   1.428       .  S
N1067      H1071   1.044       .  S
N1067      H1072   1.046       .  S
N1070      H1073   1.045   1_655  S
N1070      H1074   1.046       .  S
C1075      C1076   1.412       .  A
C1075      C1080   1.387   1_544  A
C1075      H1082   1.083   1_544  S
C1076      C1077   1.411       .  A
C1077      C1078   1.411       .  A
C1077      N1084   1.431       .  S
C1078      C1079   1.407   1_545  A
C1078      H1083   1.083       .  S
C1079      C1080   1.398   1_554  A
C1080      N1081   1.434       .  S
N1081      H1085   1.046       .  S
N1081      H1086   1.045       .  S
N1084      H1087   1.046       .  S
N1084      H1088   1.046       .  S
C1089      C1090   1.397   1_554  A
C1089      C1094   1.408       .  A
C1089      H1096   1.083       .  S
C1090      C1091   1.408       .  A
C1091      C1092   1.409       .  A
C1091      N1098   1.418       .  S
C1092      C1093   1.401       .  A
C1092      H1097   1.075       .  S
C1093      C1094   1.424   1_556  A
C1094      N1095   1.427       .  S
N1095      H1099   1.044       .  S
N1095      H1100   1.045       .  S
N1098      H1101   1.045       .  S
N1098      H1102   1.044       .  S
C1103      C1104   1.408       .  A
C1103      C1108   1.408   1_565  A
C1103      H1110   1.084       .  S
C1104      C1105   1.396   1_556  A
C1105      C1106   1.385       .  A
C1105      N1112   1.435       .  S
C1106      C1107   1.412   1_564  A
C1106      H1111   1.082   1_565  S
C1107      C1108   1.404       .  A
C1108      N1109   1.431       .  S
N1109      H1113   1.046       .  S
N1109      H1114   1.046       .  S
N1112      H1115   1.046       .  S
N1112      H1116   1.046       .  S
