geometry optimzed in LAMMPS
_audit_creation_date              2020-12-01 
_audit_creation_method            'lammps2cif' 
_symmetry_space_group_name_H-M    'P1' 
_symmetry_Int_Tables_number       1 
_symmetry_cell_setting            triclinic 
loop_ 
_symmetry_equiv_pos_as_xyz 
  x,y,z 
_cell_length_a                    42.86754093 
_cell_length_b                    42.971171773218174 
_cell_length_c                    20.92703237442881 
_cell_angle_alpha                 89.55061247907862 
_cell_angle_beta                  91.23430389767786 
_cell_angle_gamma                 91.86789248844772 
loop_ 
_atom_site_label 
_atom_site_type_symbol 
_atom_site_fract_x 
_atom_site_fract_y 
_atom_site_fract_z 
_atom_site_charge 
O1          O  0.40901479  0.60026531  0.04147203    -0.75100
O2          O  0.41047645  0.68687672  0.24626161    -0.75100
O3          O  0.36566440  0.64425938  0.27711522    -0.75200
O4          O  0.45411497  0.64432584  0.01347102    -0.75200
O5          O  0.44926883  0.63030476  0.15935351    -0.75100
O6          O  0.35981383  0.63344575  0.17365266    -0.75100
O7          O  0.40624613  0.67504630  0.14300281    -0.75100
O8          O  0.40229869  0.58843527  0.18894747    -0.75200
Ni9        Ni  0.40965876  0.64416621  0.02325410     1.25400
Ni10       Ni  0.40425950  0.63128193  0.16251750     1.25400
C11         C  0.40459888  0.58016016  0.24778090     0.87100
C12         C  0.40887545  0.69528613  0.18748964     0.87000
C13         C  0.34798941  0.63971428  0.22779429     0.87100
C14         C  0.46658897  0.63737222  0.20822934     0.87200
O15         O  0.38643640  0.92348766  0.04574889    -0.75100
O16         O  0.39567321  0.83663318  0.07892281    -0.75100
O17         O  0.34691676  0.87547065  0.07421813    -0.75200
O18         O  0.43492849  0.88467809  0.05022386    -0.75200
O19         O  0.44251007  0.89408971  0.15403105    -0.75100
O20         O  0.35378149  0.88556624  0.17787346    -0.75100
O21         O  0.40191204  0.84611599  0.18303003    -0.75100
O22         O  0.39364277  0.93324309  0.14967723    -0.75200
Ni23       Ni  0.39076346  0.87969890  0.05867157     1.25400
Ni24       Ni  0.39831554  0.89008724  0.16992802     1.25400
C25         C  0.38799685  0.94256849  0.09244740     0.87100
C26         C  0.39975492  0.82700724  0.13636662     0.87000
C27         C  0.33567226  0.87948109  0.12965020     0.87100
C28         C  0.45331750  0.89075654  0.09784470     0.87200
O29         O  0.15233396  0.60680251  0.16762460    -0.75100
O30         O  0.15580289  0.69483336  0.20954812    -0.75100
O31         O  0.19864655  0.64984377  0.18978639    -0.75200
O32         O  0.10973148  0.65177682  0.18436360    -0.75200
O33         O  0.10728912  0.63915663  0.03821356    -0.75100
O34         O  0.19757701  0.63816597  0.04299090    -0.75100
O35         O  0.15368922  0.68153783  0.06416137    -0.75100
O36         O  0.15128749  0.59555440  0.01965528    -0.75200
Ni37       Ni  0.15418438  0.65128903  0.18414387     1.25400
Ni38       Ni  0.15243583  0.63814383  0.04485252     1.25400
C39         C  0.15256889  0.58685938  0.21377689     0.87100
C40         C  0.15487967  0.70253607  0.02060346     0.87000
C41         C  0.21302568  0.64363281  0.24224826     0.87100
C42         C  0.09386646  0.64620891  0.23451395     0.87200
O43         O  0.14102805  0.92624618  0.20842816    -0.75100
O44         O  0.14309545  0.83851633  0.16588862    -0.75100
O45         O  0.18678653  0.88419653  0.19271650    -0.75200
O46         O  0.09750233  0.88082743  0.18407466    -0.75200
O47         O  0.09793668  0.89164458  0.07965049    -0.75100
O48         O  0.18756434  0.89639147  0.08897472    -0.75100
O49         O  0.14462196  0.85104058  0.06254493    -0.75100
O50         O  0.14053211  0.93719867  0.10430385    -0.75200
Ni51       Ni  0.14206450  0.88191861  0.19152683     1.25400
Ni52       Ni  0.14277382  0.89450706  0.08032370     1.25400
C53         C  0.13953955  0.94614130  0.16235433     0.87100
C54         C  0.14469577  0.83044654  0.10696464     0.87000
C55         C  0.20188957  0.89029691  0.14187446     0.87100
C56         C  0.08305876  0.88668232  0.13137779     0.87200
O57         O  0.43323825  0.38712125  0.22262550    -0.75100
O58         O  0.34791898  0.38725249  0.02269836    -0.75100
O59         O  0.39194526  0.43145692  0.99392013    -0.75200
O60         O  0.38898693  0.34281525  0.00006412    -0.75200
O61         O  0.40400495  0.34368455  0.10236621    -0.75100
O62         O  0.40770247  0.43333743  0.09580572    -0.75100
O63         O  0.36340454  0.38920846  0.12494754    -0.75100
O64         O  0.44850947  0.38767853  0.07472375    -0.75200
Ni65       Ni  0.39011740  0.38709018  0.99357614     1.25400
Ni66       Ni  0.40648490  0.38855101  0.10310846     1.25400
C67         C  0.45517239  0.38681903  0.01546937     0.87100
C68         C  0.34159771  0.38797776  0.08225623     0.87000
C69         C  0.40020646  0.44720016  0.04347919     0.87100
C70         C  0.39569645  0.32842581  0.05207617     0.87200
O71         O  0.11529507  0.39224046  0.24765680    -0.75100
O72         O  0.20372878  0.39169360  0.21449652    -0.75100
O73         O  0.16186627  0.43627170  0.23558981    -0.75200
O74         O  0.15732914  0.34764792  0.22983563    -0.75200
O75         O  0.14779782  0.34895394  0.12466136    -0.75100
O76         O  0.15125638  0.43898713  0.13123726    -0.75100
O77         O  0.19276443  0.39387708  0.10996947    -0.75100
O78         O  0.10576426  0.39365839  0.14258789    -0.75200
Ni79       Ni  0.15995390  0.39191353  0.23561449     1.25400
Ni80       Ni  0.14902950  0.39402007  0.12340711     1.25400
C81         C  0.09598070  0.39235140  0.19982054     0.87100
C82         C  0.21261404  0.39256496  0.15620289     0.87000
C83         C  0.15751494  0.45245391  0.18495313     0.87100
C84         C  0.15178762  0.33361837  0.17699364     0.87200
O85         O  0.42468125  0.13645972  0.11064444    -0.75100
O86         O  0.33518082  0.13457420  0.09398568    -0.75100
O87         O  0.37926295  0.09103029  0.10641816    -0.75200
O88         O  0.38085524  0.17967156  0.09991397    -0.75200
O89         O  0.38319258  0.17887081  0.24488784    -0.75100
O90         O  0.38399652  0.08927644  0.25002455    -0.75100
O91         O  0.33911147  0.13207767  0.23764983    -0.75100
O92         O  0.42790588  0.13634276  0.25565662    -0.75200
Ni93       Ni  0.37981361  0.13543640  0.10649277     1.25400
Ni94       Ni  0.38365130  0.13406069  0.24323319     1.25400
C95         C  0.44099884  0.13733638  0.05997297     0.87100
C96         C  0.32251058  0.13296287  0.03804210     0.87000
C97         C  0.38177160  0.07539428  0.05513396     0.87100
C98         C  0.38267321  0.19385676  0.04615446     0.87200
O99         O  0.09896665  0.14247434  0.10697151    -0.75100
O100        O  0.18384951  0.13510976  0.16435187    -0.75100
O101        O  0.13657950  0.09436108  0.13410747    -0.75200
O102        O  0.14646990  0.18351860  0.13866664    -0.75200
O103        O  0.13017036  0.18355217  0.23861264    -0.75100
O104        O  0.12300267  0.09413446  0.23640466    -0.75100
O105        O  0.16920583  0.13640708  0.26585316    -0.75100
O106        O  0.08378413  0.14170005  0.20824520    -0.75200
Ni107      Ni  0.14196640  0.13890073  0.13245391     1.25400
Ni108      Ni  0.12593372  0.13889566  0.24086664     1.25400
C109        C  0.07742197  0.14355978  0.14817110     0.87100
C110        C  0.19053067  0.13436550  0.22424159     0.87000
C111        C  0.12883505  0.07954803  0.18504140     0.87100
C112        C  0.13963132  0.19845157  0.18915477     0.87200
O113        O  0.65116998  0.43313187  0.02761587    -0.75100
O114        O  0.64618063  0.34481369  0.23833626    -0.75100
O115        O  0.69304024  0.38844575  0.25531515    -0.75200
O116        O  0.60469989  0.38911328  0.01468143    -0.75200
O117        O  0.60012090  0.40012133  0.16139186    -0.75100
O118        O  0.69035184  0.39981700  0.15144655    -0.75100
O119        O  0.64301491  0.35707847  0.13473896    -0.75100
O120        O  0.64786077  0.44323379  0.17509356    -0.75200
Ni121      Ni  0.64899792  0.38873751  0.01230499     1.25400
Ni122      Ni  0.64517293  0.40052721  0.15202972     1.25400
C123        C  0.65018460  0.45234017  0.23297287     0.87100
C124        C  0.64369539  0.33668983  0.17940097     0.87000
C125        C  0.70652332  0.39372647  0.20223658     0.87100
C126        C  0.58744952  0.39385800  0.21537227     0.87200
O127        O  0.63223700  0.11246334  0.99972031    -0.75100
O128        O  0.63676696  0.19967775  0.04317807    -0.75100
O129        O  0.67872532  0.15552876  0.02060848    -0.75200
O130        O  0.58995201  0.15676263  0.02055059    -0.75200
O131        O  0.59016705  0.14443607  0.12412427    -0.75100
O132        O  0.67938466  0.14334322  0.12426354    -0.75100
O133        O  0.63680189  0.18684330  0.14659477    -0.75100
O134        O  0.63253899  0.10058920  0.10356683    -0.75200
Ni135      Ni  0.63437042  0.15658932  0.01729479     1.25400
Ni136      Ni  0.63475389  0.14335849  0.12827158     1.25400
C137        C  0.63150185  0.09214750  0.04503586     0.87100
C138        C  0.63770825  0.20749838  0.10232236     0.87000
C139        C  0.69375226  0.14902238  0.07215680     0.87100
C140        C  0.57534203  0.15088133  0.07209114     0.87200
O141        O  0.90354483  0.44184340  0.14611310    -0.75100
O142        O  0.89985684  0.35308047  0.17475902    -0.75100
O143        O  0.85706293  0.39785646  0.15653122    -0.75200
O144        O  0.94643470  0.39675239  0.16273322    -0.75200
O145        O  0.94672333  0.40453824  0.01523518    -0.75100
O146        O  0.85655888  0.40516056  0.01036354    -0.75100
O147        O  0.89965500  0.36133512  0.02812408    -0.75100
O148        O  0.90301139  0.44899921  0.99993622    -0.75200
Ni149      Ni  0.90178730  0.39715406  0.15625418     1.25400
Ni150      Ni  0.90156817  0.40535151  0.01707237     1.25400
C151        C  0.90291760  0.45998699  0.19447128     0.87100
C152        C  0.89853310  0.34271135  0.98079211     0.87000
C153        C  0.84208534  0.40102672  0.20821664     0.87100
C154        C  0.96148459  0.40042234  0.21585234     0.87200
O155        O  0.88537228  0.11615515  0.14980791    -0.75100
O156        O  0.88782230  0.20322232  0.10561573    -0.75100
O157        O  0.84224953  0.15903049  0.12321162    -0.75200
O158        O  0.93107926  0.15999451  0.13271235    -0.75200
O159        O  0.93300873  0.14753942  0.02978748    -0.75100
O160        O  0.84346753  0.14797700  0.01930066    -0.75100
O161        O  0.89007735  0.19124028  0.00243922    -0.75100
O162        O  0.88673872  0.10467370  0.04624906    -0.75200
Ni163      Ni  0.88658818  0.16009965  0.13146896     1.25400
Ni164      Ni  0.88832031  0.14747210  0.02070958     1.25400
C165        C  0.88586586  0.09608112  0.10493019     0.87100
C166        C  0.88916356  0.21156864  0.04671892     0.87000
C167        C  0.82823089  0.15337847  0.06985452     0.87100
C168        C  0.94673354  0.15319436  0.08357151     0.87200
O169        O  0.62113171  0.64616791  0.18963708    -0.75100
O170        O  0.70790724  0.64932260  0.99430743    -0.75100
O171        O  0.66501075  0.60418240  0.95963350    -0.75200
O172        O  0.66360458  0.69265553  0.97130578    -0.75200
O173        O  0.64874943  0.68913792  0.07267851    -0.75100
O174        O  0.65286440  0.59960361  0.06202897    -0.75100
O175        O  0.69332067  0.64690629  0.09588638    -0.75100
O176        O  0.60775461  0.64134231  0.04180022    -0.75200
Ni177      Ni  0.66502450  0.64847536  0.96272310     1.25400
Ni178      Ni  0.65016424  0.64412786  0.07173079     1.25400
C179        C  0.60032989  0.64286402  0.98241301     0.87100
C180        C  0.71474459  0.64843027  0.05442342     0.87000
C181        C  0.65957840  0.58713420  0.00854066     0.87100
C182        C  0.65553919  0.70555279  0.02300284     0.87200
O183        O  0.94066390  0.65407850  0.24169583    -0.75100
O184        O  0.85245303  0.65348779  0.20253015    -0.75100
O185        O  0.89516226  0.60928942  0.22452500    -0.75200
O186        O  0.89752412  0.69798002  0.22130203    -0.75200
O187        O  0.90610922  0.69773132  0.11651940    -0.75100
O188        O  0.90612637  0.60842636  0.12098329    -0.75100
O189        O  0.86291513  0.65174561  0.09877575    -0.75100
O190        O  0.95017404  0.65467212  0.13743016    -0.75200
Ni191      Ni  0.89616018  0.65370105  0.22628914     1.25400
Ni192      Ni  0.90678648  0.65311142  0.11476093     1.25400
C193        C  0.95995582  0.65496807  0.19558808     0.87100
C194        C  0.84329369  0.65261946  0.14381500     0.87000
C195        C  0.89975668  0.59414019  0.17340850     0.87100
C196        C  0.90116286  0.71239498  0.16824330     0.87200
O197        O  0.60655120  0.89669771  0.08694965    -0.75100
O198        O  0.69297869  0.90417290  0.04224026    -0.75100
O199        O  0.64714352  0.94474466  0.06458424    -0.75200
O200        O  0.65237251  0.85571525  0.06417108    -0.75200
O201        O  0.63742064  0.85435776  0.21236879    -0.75100
O202        O  0.63454695  0.94381231  0.20796285    -0.75100
O203        O  0.67932960  0.90158006  0.18779116    -0.75100
O204        O  0.59307294  0.89637956  0.98351403    -0.75200
Ni205      Ni  0.65026889  0.90033675  0.06808249     1.25400
Ni206      Ni  0.63556199  0.89900654  0.20662871     1.25400
C207        C  0.58553175  0.89544026  0.04249903     0.87100
C208        C  0.70058596  0.90466470  0.98333706     0.87000
C209        C  0.63982989  0.95922367  0.01292589     0.87100
C210        C  0.64584946  0.84040781  0.01291424     0.87200
O211        O  0.93195360  0.90281320  0.09674785    -0.75100
O212        O  0.84297457  0.90272767  0.12010463    -0.75100
O213        O  0.88839513  0.94724822  0.10069031    -0.75200
O214        O  0.88690496  0.85877064  0.11479447    -0.75200
O215        O  0.89525860  0.86216996  0.21999375    -0.75100
O216        O  0.89528869  0.95138130  0.20624511    -0.75100
O217        O  0.85107161  0.90613109  0.22539685    -0.75100
O218        O  0.93936478  0.90729645  0.20198810    -0.75200
Ni219      Ni  0.88720149  0.90282122  0.10435559     1.25400
Ni220      Ni  0.89546911  0.90690554  0.21718069     1.25400
C221        C  0.95032515  0.90473405  0.14590408     0.87100
C222        C  0.83240695  0.90423286  0.17689316     0.87000
C223        C  0.89225022  0.96391545  0.15079434     0.87100
C224        C  0.89190503  0.84584746  0.16913288     0.87200
C225        C  0.73381614  0.90600480  0.21531991    -0.06800
C226        C  0.74449050  0.88637427  0.16755508    -0.17900
C227        C  0.77636784  0.88507642  0.15399220     0.10400
C228        C  0.79828769  0.90443558  0.18769198    -0.06700
C229        C  0.78747968  0.92452288  0.23440758    -0.17900
C230        C  0.75638937  0.92502233  0.00147815     0.10500
S231        S  0.78764131  0.85680285  0.09634944    -0.32900
S232        S  0.74613368  0.95173332  0.06318073    -0.32900
H233        H  0.71733973  0.95972980  0.03547486     0.28500
H234        H  0.81468949  0.84804137  0.13029756     0.28500
H235        H  0.72801810  0.87092635  0.14241923     0.19100
H236        H  0.80484938  0.93769983  0.01485251     0.19100
C237        C  0.89894043  0.74641447  0.16728177    -0.06800
C238        C  0.91648735  0.76389244  0.21230195    -0.17900
C239        C  0.91485441  0.79629165  0.21412733     0.10400
C240        C  0.89420829  0.81161911  0.17162540    -0.06700
C241        C  0.87622058  0.79387545  0.12737249    -0.17900
C242        C  0.87837086  0.76148076  0.12474835     0.10500
S243        S  0.94123229  0.81657311  0.26873416    -0.32900
S244        S  0.85326227  0.73945629  0.07006179    -0.32900
H245        H  0.84128903  0.76504449  0.03635200     0.28500
H246        H  0.95047712  0.83932750  0.22361900     0.28500
H247        H  0.93221137  0.75224476  0.24521714     0.19100
H248        H  0.86021920  0.80545850  0.09505186     0.19100
C249        C  0.65310423  0.73984724  0.02310494    -0.06800
C250        C  0.63281196  0.75316557  0.97812706    -0.17900
C251        C  0.62909324  0.78529745  0.22449547     0.10400
C252        C  0.64798338  0.80564209  0.01382162    -0.06700
C253        C  0.66831574  0.79200167  0.05916079    -0.17900
C254        C  0.67116563  0.75958607  0.06393703     0.10500
S255        S  0.60044794  0.79851702  0.16737785    -0.32900
S256        S  0.69915885  0.74493648  0.12106434    -0.32900
H257        H  0.70824090  0.72040513  0.08233323     0.28500
H258        H  0.62198304  0.81645181  0.13278155     0.28500
H259        H  0.61807538  0.73801103  0.19753110     0.19100
H260        H  0.68247702  0.80674172  0.09088590     0.19100
C261        C  0.80979732  0.65125765  0.12600945    -0.06800
C262        C  0.80018459  0.62964844  0.07929184    -0.17900
C263        C  0.76958238  0.62819298  0.05542751     0.10400
C264        C  0.74764742  0.64913204  0.07752986    -0.06700
C265        C  0.75708115  0.67057086  0.12512359    -0.17900
C266        C  0.78790321  0.67207295  0.14912910     0.10500
S267        S  0.75983945  0.59778387  0.99986396    -0.32900
S268        S  0.79848644  0.70311064  0.20339544    -0.32900
H269        H  0.81181761  0.68371157  0.24988256     0.28500
H270        H  0.73163548  0.58962952  0.02983298     0.28500
H271        H  0.81674579  0.61358889  0.06130998     0.19100
H272        H  0.74046313  0.68655941  0.14320619     0.19100
C273        C  0.88713701  0.06246617  0.12000679    -0.06800
C274        C  0.90754517  0.04494487  0.08453625    -0.19500
C275        C  0.91086246  0.01323986  0.09619124     0.10400
C276        C  0.89295009  0.99808547  0.14368326    -0.06700
C277        C  0.87300925  0.01559141  0.18046828    -0.17900
C278        C  0.86944004  0.04745293  0.16833603     0.10500
S279        S  0.93920641  0.99384617  0.04997037    -0.32900
S280        S  0.83969828  0.06657372  0.21133418    -0.32900
H281        H  0.83137634  0.08596648  0.16000721     0.28500
H282        H  0.94693705  0.97177681  0.09705087     0.28500
H283        H  0.92151018  0.05618795  0.04787535     0.19100
H284        H  0.85879871  0.00402456  0.21632498     0.19100
C285        C  0.90173595  0.49415498  0.18570833    -0.06800
C286        C  0.88102134  0.51038471  0.22316865    -0.17900
C287        C  0.87864486  0.54268032  0.21774522     0.10400
C288        C  0.89829369  0.55967949  0.17552846    -0.06700
C289        C  0.91835561  0.54336746  0.13681803    -0.17900
C290        C  0.92043185  0.51102296  0.14188109     0.10500
S291        S  0.84895386  0.56037405  0.26365780    -0.32900
S292        S  0.94915021  0.49321282  0.09471204    -0.32900
H293        H  0.95842397  0.47233690  0.14309931     0.28500
H294        H  0.84048175  0.58166529  0.21534246     0.28500
H295        H  0.86602561  0.49768690  0.25608598     0.19100
H296        H  0.93355009  0.55602580  0.10423856     0.19100
C297        C  0.89595429  0.30889636  0.99465802    -0.06800
C298        C  0.87585602  0.29883045  0.04336168    -0.17900
C299        C  0.87258169  0.26737352  0.06056727     0.10400
C300        C  0.89018860  0.24506753  0.02902416    -0.06700
C301        C  0.91004966  0.25510584  0.97975299    -0.17900
C302        C  0.91404848  0.28674319  0.21265855     0.10500
S303        S  0.84493856  0.25756137  0.12197375    -0.32900
S304        S  0.94187591  0.29739261  0.15225585    -0.32900
H305        H  0.95314496  0.32456105  0.18320030     0.28500
H306        H  0.83501231  0.22873155  0.09637860     0.28500
H307        H  0.86225690  0.31567867  0.06797931     0.19100
H308        H  0.92407418  0.23837603  0.20373805     0.19100
C309        C  0.63017187  0.05834706  0.03068444    -0.06800
C310        C  0.64918405  0.04686721  0.98291641    -0.17900
C311        C  0.65265773  0.01470729  0.97493731     0.10400
C312        C  0.63646333  0.99338255  0.01529193    -0.06700
C313        C  0.61647596  0.00491647  0.06108089    -0.17900
C314        C  0.61270102  0.03689683  0.06837014     0.10500
S315        S  0.68250670  0.00295974  0.16508590    -0.32900
S316        S  0.58447462  0.04875575  0.12535652    -0.32900
H317        H  0.57535317  0.07522002  0.09057731     0.28500
H318        H  0.68594122  0.97212017  0.18542594     0.28500
H319        H  0.66266133  0.06305861  0.95368855     0.19100
H320        H  0.60345171  0.98877120  0.09130380     0.19100
C321        C  0.79394288  0.15238471  0.06795463    -0.06800
C322        C  0.77853961  0.13307792  0.11237088    -0.17900
C323        C  0.74603411  0.13042446  0.11329586     0.10400
C324        C  0.72817740  0.14880719  0.07090720    -0.06700
C325        C  0.74365753  0.16818065  0.02636793    -0.17900
C326        C  0.77623828  0.17024305  0.02444830     0.10500
S327        S  0.72911716  0.10189721  0.16715602    -0.32900
S328        S  0.79327489  0.19727008  0.96753669    -0.32900
H329        H  0.82181001  0.20289792  0.99996555     0.28500
H330        H  0.70627048  0.09091018  0.12277606     0.28500
H331        H  0.79194342  0.11948460  0.14611226     0.19100
H332        H  0.73029026  0.18243382  0.99353409     0.19100
C333        C  0.65324981  0.48634441  0.24402710    -0.06800
C334        C  0.67291472  0.50368764  0.20361191    -0.17900
C335        C  0.67588998  0.53613400  0.20699025     0.10400
C336        C  0.65966829  0.55259175  0.00264942    -0.06700
C337        C  0.64039813  0.53487343  0.04373383    -0.17900
C338        C  0.63665953  0.50252507  0.03781255     0.10500
S339        S  0.70097931  0.55392320  0.14779700    -0.32900
S340        S  0.60748861  0.48351082  0.08574506    -0.32900
H341        H  0.59734958  0.46195149  0.03889082     0.28500
H342        H  0.70990948  0.58079714  0.18035850     0.28500
H343        H  0.68591844  0.49172104  0.16789020     0.19100
H344        H  0.62677299  0.54648277  0.07891551     0.19100
C345        C  0.80747158  0.39987890  0.20574842    -0.06800
C346        C  0.79167316  0.37943451  0.24738311    -0.17900
C347        C  0.75909447  0.37552955  0.24451750     0.10400
C348        C  0.74128453  0.39355589  0.20083384    -0.06700
C349        C  0.75721599  0.41364671  0.15836616    -0.17900
C350        C  0.78992277  0.41712143  0.16058381     0.10500
S351        S  0.74205296  0.34575727  0.29542954    -0.32900
S352        S  0.80768369  0.44524537  0.10699017    -0.32900
H353        H  0.83206092  0.45465816  0.14931437     0.28500
H354        H  0.71948873  0.33548009  0.24977157     0.28500
H355        H  0.80494658  0.36550716  0.28102555     0.19100
H356        H  0.74406767  0.42767335  0.12473908     0.19100
C357        C  0.64184931  0.30348046  0.16120140    -0.06800
C358        C  0.66073565  0.29372076  0.11155955    -0.17900
C359        C  0.66015364  0.26265198  0.09165593     0.10400
C360        C  0.63964924  0.24069609  0.12087728    -0.06700
C361        C  0.62066590  0.25050675  0.17036784    -0.17900
C362        C  0.62118931  0.28161475  0.19008706     0.10500
S363        S  0.68827137  0.25129543  0.78640580    -0.32900
S364        S  0.59370862  0.29226628  0.24947670    -0.32900
H365        H  0.58712640  0.32117947  0.22123602     0.28500
H366        H  0.69416223  0.22324439  0.05830840     0.28500
H367        H  0.67735037  0.30972763  0.84215506     0.19100
H368        H  0.60466560  0.23393493  0.19277333     0.19100
C369        C  0.04481645  0.14772591  0.12620558    -0.06800
C370        C  0.03084879  0.12684461  0.08204936    -0.17900
C371        C  0.99916990  0.12874744  0.06423875     0.10400
C372        C  0.98107736  0.15222450  0.09085542    -0.06700
C373        C  0.99560081  0.17377801  0.13261253    -0.17900
C374        C  0.02700007  0.17187754  0.15003212     0.10500
S375        S  0.98258845  0.09866813  0.01333040    -0.32900
S376        S  0.04301041  0.20147953  0.20202504    -0.32900
H377        H  0.07162808  0.20410638  0.17048714     0.28500
H378        H  0.97140305  0.11964117  0.96717063     0.28500
H379        H  0.04438116  0.10834862  0.06294289     0.19100
H380        H  0.98217684  0.19211842  0.15281417     0.19100
C381        C  0.54085680  0.14998925  0.07104703    -0.06800
C382        C  0.52556936  0.12986493  0.11411571    -0.17900
C383        C  0.49327944  0.12488864  0.11090782     0.10400
C384        C  0.47532939  0.14081949  0.06472056    -0.06700
C385        C  0.49047419  0.16145629  0.02232384    -0.17900
C386        C  0.52284370  0.16662378  0.02559012     0.10500
S387        S  0.47696304  0.09608107  0.16387998    -0.32900
S388        S  0.53900064  0.19587175  0.22470734    -0.32900
H389        H  0.56079045  0.20799369  0.01839241     0.28500
H390        H  0.45517957  0.08392371  0.11861340     0.28500
H391        H  0.53898289  0.11675627  0.14892533     0.19100
H392        H  0.47663610  0.17451665  0.24005233     0.19100
C393        C  0.28780622  0.13160820  0.27788708    -0.06800
C394        C  0.27502512  0.11079712  0.23220592    -0.17900
C395        C  0.24320732  0.11026152  0.21597605     0.10400
C396        C  0.22342570  0.13137766  0.24516922    -0.06700
C397        C  0.23592875  0.15164705  0.29205756    -0.17900
C398        C  0.26781453  0.15207031  0.30852684     0.10500
S399        S  0.22930367  0.08186774  0.15808963    -0.32900
S400        S  0.28209500  0.18186916  0.36250439    -0.32900
H401        H  0.29558453  0.16088475  0.40573392     0.28500
H402        H  0.20016885  0.07634575  0.18636224     0.28500
H403        H  0.29074635  0.09427690  0.96068989     0.19100
H404        H  0.22101004  0.16822125  0.31403425     0.19100
C405        C  0.06179388  0.39130386  0.20941393    -0.06800
C406        C  0.04919991  0.41053511  0.25537851    -0.17900
C407        C  0.01684144  0.41411752  0.25880916     0.10400
C408        C  0.99615907  0.39769661  0.21633893    -0.06700
C409        C  0.00895653  0.37753343  0.17203977    -0.17900
C410        C  0.04119659  0.37385630  0.16870153     0.10500
S411        S  0.00391986  0.44233589  0.31395369    -0.32900
S412        S  0.05447017  0.34575149  0.11257965    -0.32900
H413        H  0.07991755  0.33635139  0.15081276     0.28500
H414        H  0.98386212  0.45568751  0.26806733     0.28500
H415        H  0.06473195  0.42420612  0.28652278     0.19100
H416        H  0.99368424  0.36420735  0.13980090     0.19100
C417        C  0.14302945  0.23329169  0.18932259    -0.06800
C418        C  0.16368437  0.24764298  0.14558471    -0.17900
C419        C  0.16706938  0.28013859  0.14019242     0.10400
C420        C  0.14909645  0.29923802  0.17839543    -0.06700
C421        C  0.12882055  0.28527231  0.22246589    -0.17900
C422        C  0.12568727  0.25289722  0.22894301     0.10500
S423        S  0.19577959  0.29584025  0.08620493    -0.32900
S424        S  0.09892749  0.23898018  0.03391883    -0.32900
H425        H  0.11966902  0.21997045  0.06630316     0.28500
H426        H  0.20576795  0.32020781  0.12694856     0.28500
H427        H  0.17760177  0.23341410  0.11541160     0.19100
H428        H  0.11520133  0.29989331  0.25252287     0.19100
C429        C  0.48836997  0.38608934  0.99770801    -0.06800
C430        C  0.49925954  0.40535585  0.94799620    -0.17900
C431        C  0.53130479  0.40937408  0.18720266     0.10400
C432        C  0.55290786  0.39142872  0.22249012    -0.06700
C433        C  0.54132067  0.37040905  0.26871873    -0.17900
C434        C  0.50948629  0.36732266  0.28091387     0.10500
S435        S  0.54272082  0.43657253  0.87603151    -0.32900
S436        S  0.49760277  0.33810753  0.33820369    -0.32900
H437        H  0.47123443  0.33058112  0.05964018     0.28500
H438        H  0.56664412  0.45089571  0.17158403     0.28500
H439        H  0.48293428  0.41929394  0.92092178     0.19100
H440        H  0.55722388  0.35597283  0.29572745     0.19100
C441        C  0.38533746  0.22813476  0.04634903    -0.06800
C442        C  0.40611589  0.24218630  0.09091564    -0.17900
C443        C  0.41008150  0.27452993  0.09465401     0.10400
C444        C  0.39267949  0.29380631  0.05285221    -0.06700
C445        C  0.37148344  0.27943621  0.25997602    -0.17900
C446        C  0.36753379  0.24703053  0.25660556     0.10500
S447        S  0.43960667  0.28894080  0.15017180    -0.32900
S448        S  0.33921608  0.23150247  0.19948303    -0.32900
H449        H  0.32884334  0.20652486  0.23825784     0.28500
H450        H  0.41895070  0.30663351  0.18402630     0.28500
H451        H  0.41979790  0.22771580  0.12280009     0.19100
H452        H  0.35781268  0.29358065  0.22748814     0.19100
C453        C  0.30875542  0.38772543  0.10244396    -0.06800
C454        C  0.30071331  0.40729188  0.15256296    -0.17900
C455        C  0.26968751  0.40944543  0.17129123     0.10400
C456        C  0.24600896  0.39122190  0.14027704    -0.06700
C457        C  0.25413608  0.37158435  0.09034404    -0.17900
C458        C  0.28512720  0.36913971  0.07204027     0.10500
S459        S  0.26156856  0.43760906  0.23125051    -0.32900
S460        S  0.29299901  0.34094323  0.01153479    -0.32900
H461        H  0.32139573  0.33175972  0.03955602     0.28500
H462        H  0.23437056  0.44767276  0.19970658     0.28500
H463        H  0.31857900  0.42193147  0.17574764     0.19100
H464        H  0.23620204  0.35763490  0.06575660     0.19100
C465        C  0.13532634  0.97993418  0.17414455    -0.06800
C466        C  0.11460225  0.99574192  0.13325892    -0.17900
C467        C  0.11062125  0.02785771  0.13826078     0.10400
C468        C  0.12790037  0.04508650  0.18478066    -0.06700
C469        C  0.14755487  0.02929005  0.22760007    -0.17900
C470        C  0.15187506  0.99718672  0.22204674     0.10500
S471        S  0.08270337  0.04545818  0.08469931    -0.32900
S472        S  0.18176372  0.98070889  0.27169482    -0.32900
H473        H  0.19269982  0.96306988  0.22129135     0.28500
H474        H  0.07456261  0.06893881  0.12710191     0.28500
H475        H  0.10140557  0.98294545  0.09670162     0.19100
H476        H  0.16123967  0.04241543  0.26295203     0.19100
C477        C  0.04901995  0.89055309  0.13245124    -0.06800
C478        C  0.03794376  0.91087052  0.17817103    -0.17900
C479        C  0.00632519  0.91734174  0.18115425     0.10400
C480        C  0.98459039  0.90252786  0.13858152    -0.06700
C481        C  0.99584617  0.88278918  0.09154289    -0.17900
C482        C  0.02770127  0.87640299  0.08837847     0.10500
S483        S  0.99581194  0.94604549  0.23827627    -0.32900
S484        S  0.03924190  0.84863954  0.02990552    -0.32900
H485        H  0.06491705  0.83751414  0.06512781     0.28500
H486        H  0.97265762  0.95900266  0.19869155     0.28500
H487        H  0.05428582  0.92247658  0.21112173     0.19100
H488        H  0.97959919  0.87136365  0.05844295     0.19100
C489        C  0.15449721  0.55277412  0.20215983    -0.06800
C490        C  0.17381710  0.53570212  0.24346743    -0.17900
C491        C  0.17601001  0.50329118  0.23833085     0.10400
C492        C  0.15869348  0.48711546  0.18962325    -0.06700
C493        C  0.14019000  0.50435620  0.14704238    -0.17900
C494        C  0.13736461  0.53657796  0.15380597     0.10500
S495        S  0.20061589  0.48382618  0.03828370    -0.32900
S496        S  0.10894111  0.55469358  0.10359872    -0.32900
H497        H  0.09903488  0.57503188  0.15086181     0.28500
H498        H  0.20756260  0.50910877  0.07904866     0.28500
H499        H  0.18629521  0.54806281  0.02478654     0.19100
H500        H  0.12636306  0.49239491  0.11025787     0.19100
C501        C  0.05925906  0.64935250  0.22951930    -0.06800
C502        C  0.04750577  0.66829859  0.17991565    -0.17900
C503        C  0.01538888  0.67178886  0.16973609     0.10400
C504        C  0.99404566  0.65539038  0.20909790    -0.06700
C505        C  0.00552088  0.63757042  0.26027603    -0.17900
C506        C  0.03774246  0.63444640  0.27116225     0.10500
S507        S  0.00212828  0.69860731  0.10859667    -0.32900
S508        S  0.05033787  0.60990110  0.33609490    -0.32900
H509        H  0.02112105  0.60513612  0.36457248     0.28500
H510        H  0.03163144  0.70724665  0.08478578     0.28500
H511        H  0.06363954  0.68074334  0.14903249     0.19100
H512        H  0.98906914  0.62514184  0.29051162     0.19100
C513        C  0.15278332  0.73565402  0.04063139    -0.06800
C514        C  0.13060875  0.74260604  0.08671686    -0.17900
C515        C  0.12787502  0.77284004  0.11058571     0.10400
C516        C  0.14779240  0.79725076  0.08833169    -0.06700
C517        C  0.17023244  0.79037998  0.29258553    -0.17900
C518        C  0.17285243  0.76018709  0.26810972     0.10500
S519        S  0.09657713  0.77921478  0.16449209    -0.32900
S520        S  0.20505591  0.75332486  0.21681991    -0.32900
H521        H  0.18648784  0.73964237  0.16800882     0.28500
H522        H  0.11578734  0.79320326  0.21180554     0.28500
H523        H  0.11495776  0.72424364  0.10404596     0.19100
H524        H  0.18657253  0.80859008  0.27732967     0.19100
C525        C  0.38367087  0.97590180  0.07988684    -0.06800
C526        C  0.40021113  0.99015076  0.03009490    -0.17900
C527        C  0.39984583  0.02233514  0.02037968     0.10400
C528        C  0.38196161  0.04094804  0.06024619    -0.06700
C529        C  0.36437823  0.02631322  0.10854904    -0.17900
C530        C  0.36471632  0.99408352  0.11818457     0.10500
S531        S  0.42514510  0.03822059  0.96056579    -0.32900
S532        S  0.33423946  0.97625972  0.41642721    -0.32900
H533        H  0.33256424  0.94979834  0.14427829     0.28500
H534        H  0.43730607  0.06172672  0.00127893     0.28500
H535        H  0.41481471  0.97630571  0.00052161     0.19100
H536        H  0.34529290  0.03926919  0.37892371     0.19100
C537        C  0.48745219  0.89259991  0.08665109    -0.06800
C538        C  0.49905029  0.87274239  0.04047833    -0.17900
C539        C  0.53079176  0.87259216  0.02697960     0.10400
C540        C  0.55204849  0.89306734  0.05928455    -0.06700
C541        C  0.54069843  0.91271229  0.10631376    -0.17900
C542        C  0.50867602  0.91303783  0.11967258     0.10500
S543        S  0.54284567  0.84452551  0.97017638    -0.32900
S544        S  0.49628584  0.94141138  0.17595533    -0.32900
H545        H  0.46902255  0.94885586  0.14121678     0.28500
H546        H  0.56996534  0.83734999  0.00561000     0.28500
H547        H  0.48326345  0.85663076  0.01525723     0.19100
H548        H  0.55669346  0.92880681  0.13100317     0.19100
C549        C  0.30124999  0.87904863  0.13724406    -0.06800
C550        C  0.28879604  0.89763223  0.18473628    -0.17900
C551        C  0.25650006  0.90172254  0.18819406     0.10400
C552        C  0.23614307  0.88748361  0.14232390    -0.06700
C553        C  0.24843527  0.86805918  0.09659763    -0.17900
C554        C  0.28035762  0.86301696  0.09478112     0.10500
S555        S  0.24212625  0.92670591  0.24868567    -0.32900
S556        S  0.29227274  0.83389021  0.04055511    -0.32900
H557        H  0.31389273  0.82168157  0.08483380     0.28500
H558        H  0.27039434  0.93108109  0.28338433     0.28500
H559        H  0.30446999  0.90979358  0.21799793     0.19100
H560        H  0.23283069  0.85584687  0.06310263     0.19100
C561        C  0.40137840  0.54675623  0.26482502    -0.06800
C562        C  0.42111661  0.53412711  0.06086414    -0.17900
C563        C  0.42069075  0.50201529  0.07393222     0.10400
C564        C  0.40021713  0.48175872  0.03849050    -0.06700
C565        C  0.37997108  0.49473531  0.99248220    -0.17900
C566        C  0.38027104  0.52666104  0.97979551     0.10500
S567        S  0.44899168  0.48834731  0.13147485    -0.32900
S568        S  0.35209280  0.54031892  0.92163103    -0.32900
H569        H  0.34388700  0.56917264  0.21922109     0.28500
H570        H  0.42646482  0.47377325  0.17005456     0.28500
H571        H  0.44063101  0.54872382  0.33098064     0.19100
H572        H  0.36367163  0.47980295  0.96561976     0.19100
C573        C  0.50100407  0.63868490  0.20352574    -0.06800
C574        C  0.51730490  0.61088661  0.20308950    -0.17900
C575        C  0.55006111  0.61128029  0.20820548     0.10400
C576        C  0.56697550  0.64083027  0.96425661    -0.06700
C577        C  0.55087786  0.66855181  0.96110283    -0.17900
C578        C  0.51818587  0.66826217  0.95763634     0.10500
S579        S  0.56899073  0.57442937  0.21290022    -0.32900
S580        S  0.49875464  0.70469418  0.95747903    -0.32900
H581        H  0.52559644  0.72441617  0.95819164     0.28500
H582        H  0.59729421  0.58512496  0.18656807     0.28500
H583        H  0.50442443  0.58876747  0.20170408     0.19100
H584        H  0.56401015  0.69046292  0.96465960     0.19100
C585        C  0.24737093  0.64084656  0.24151420    -0.06800
C586        C  0.26617050  0.65881585  0.28361289    -0.17900
C587        C  0.29883457  0.65960789  0.27950639     0.10400
C588        C  0.31343399  0.64115323  0.23340450    -0.06700
C589        C  0.29440554  0.62284015  0.19202793    -0.17900
C590        C  0.26183711  0.62220937  0.19603888     0.10500
S591        S  0.32004031  0.68648280  0.33136391    -0.32900
S592        S  0.24010060  0.59589875  0.14377151    -0.32900
H593        H  0.21753564  0.58766479  0.18906178     0.28500
H594        H  0.34068926  0.69675962  0.28394710     0.28500
H595        H  0.25527294  0.67342995  0.31813997     0.19100
H596        H  0.30498445  0.60828429  0.15697834     0.19100
C597        C  0.40802343  0.72891423  0.17239233    -0.06800
C598        C  0.38820499  0.74654084  0.20896476    -0.17900
C599        C  0.38435672  0.77809314  0.19669643     0.10400
C600        C  0.40175046  0.79330365  0.14871894    -0.06700
C601        C  0.42175000  0.77594517  0.11205358    -0.17900
C602        C  0.42535341  0.74407060  0.12355245     0.10500
S603        S  0.35392757  0.79694116  0.99088069    -0.32900
S604        S  0.45432617  0.72591376  0.07698763    -0.32900
H605        H  0.45490673  0.69685975  0.10729969     0.28500
H606        H  0.34541339  0.81646418  0.19054084     0.28500
H607        H  0.37382857  0.73569818  0.99735939     0.19100
H608        H  0.43530622  0.78751884  0.07514787     0.19100
O609        O  0.40933816  0.60039998  0.29183006    -0.75100
O610        O  0.40926520  0.68649966  0.49700278    -0.75100
O611        O  0.36442155  0.64327154  0.52483698    -0.75200
O612        O  0.45457391  0.64382018  0.26181034    -0.75200
O613        O  0.44871847  0.63126167  0.40824085    -0.75100
O614        O  0.35911601  0.63329310  0.42090547    -0.75100
O615        O  0.40539782  0.67569821  0.39320061    -0.75100
O616        O  0.40205038  0.58866853  0.43493357    -0.75200
Ni617      Ni  0.41028951  0.64421417  0.27284743     1.25400
Ni618      Ni  0.40368478  0.63175577  0.41059513     1.25400
C619        C  0.40388502  0.57975043  0.49340462     0.87100
C620        C  0.40794370  0.69548322  0.43854447     0.87000
C621        C  0.34699980  0.63897987  0.47503986     0.87100
C622        C  0.46578097  0.63783718  0.45774298     0.87200
O623        O  0.38602607  0.92337480  0.29628793    -0.75100
O624        O  0.39561649  0.83679647  0.33139424    -0.75100
O625        O  0.34673328  0.87534169  0.32626384    -0.75200
O626        O  0.43464622  0.88491888  0.30149193    -0.75200
O627        O  0.44236899  0.89483516  0.40502515    -0.75100
O628        O  0.35373549  0.88599064  0.42967879    -0.75100
O629        O  0.40198244  0.84675746  0.43529207    -0.75100
O630        O  0.39325019  0.93373409  0.40000045    -0.75200
Ni631      Ni  0.39052281  0.87971790  0.31027890     1.25400
Ni632      Ni  0.39819936  0.89069173  0.42127853     1.25400
C633        C  0.38764885  0.94270417  0.34250468     0.87100
C634        C  0.39976818  0.82743167  0.38899371     0.87000
C635        C  0.33559808  0.87946962  0.38176016     0.87100
C636        C  0.45311068  0.89136725  0.34882037     0.87200
O637        O  0.14995554  0.60727291  0.41635371    -0.75100
O638        O  0.15570337  0.69492852  0.46093783    -0.75100
O639        O  0.19737968  0.64916883  0.43825410    -0.75200
O640        O  0.10848265  0.65308720  0.43637760    -0.75200
O641        O  0.10773637  0.63911782  0.28745855    -0.75100
O642        O  0.19803113  0.63947998  0.29428805    -0.75100
O643        O  0.15335372  0.68232855  0.31279845    -0.75100
O644        O  0.15251850  0.59594251  0.27179798    -0.75200
Ni645      Ni  0.15291088  0.65160818  0.43428454     1.25400
Ni646      Ni  0.15287441  0.63878803  0.29520139     1.25400
C647        C  0.15033507  0.58702441  0.46190669     0.87100
C648        C  0.15427612  0.70293638  0.26846611     0.87000
C649        C  0.21204638  0.64250574  0.49015519     0.87100
C650        C  0.09302782  0.64732218  0.48701792     0.87200
O651        O  0.14073360  0.92527630  0.46133022    -0.75100
O652        O  0.14274475  0.83800821  0.41531149    -0.75100
O653        O  0.18659244  0.88323491  0.44442537    -0.75200
O654        O  0.09729067  0.88028177  0.43446791    -0.75200
O655        O  0.09834234  0.89309242  0.33099508    -0.75100
O656        O  0.18789218  0.89549615  0.34072377    -0.75100
O657        O  0.14402843  0.85148241  0.31238386    -0.75100
O658        O  0.14247215  0.93741441  0.35797001    -0.75200
Ni659      Ni  0.14180786  0.88114334  0.44261394     1.25400
Ni660      Ni  0.14324903  0.89484947  0.33199459     1.25400
C661        C  0.14091304  0.94580495  0.41636240     0.87100
C662        C  0.14413140  0.83049973  0.35604005     0.87000
C663        C  0.20190774  0.88915415  0.39373595     0.87100
C664        C  0.08316946  0.88722384  0.38202796     0.87200
O665        O  0.43195048  0.38571523  0.46886314    -0.75100
O666        O  0.34759334  0.38735880  0.27369358    -0.75100
O667        O  0.39146800  0.43167928  0.24498181    -0.75200
O668        O  0.38875366  0.34284186  0.25127830    -0.75200
O669        O  0.40370030  0.34379522  0.35359849    -0.75100
O670        O  0.40761802  0.43341090  0.34669423    -0.75100
O671        O  0.36308415  0.38949057  0.37589179    -0.75100
O672        O  0.44833215  0.38758172  0.32516065    -0.75200
Ni673      Ni  0.38977617  0.38722023  0.24452658     1.25400
Ni674      Ni  0.40626769  0.38864684  0.35395706     1.25400
C675        C  0.45490849  0.38690905  0.26580345     0.87100
C676        C  0.34124010  0.38825611  0.33321274     0.87000
C677        C  0.39989734  0.44733182  0.29459678     0.87100
C678        C  0.39541779  0.32847432  0.30341431     0.87200
O679        O  0.11393484  0.39175573  0.49472284    -0.75100
O680        O  0.20255292  0.39281602  0.46270770    -0.75100
O681        O  0.15960621  0.43660501  0.48263386    -0.75200
O682        O  0.15690774  0.34794919  0.47765875    -0.75200
O683        O  0.14756069  0.34892704  0.37242012    -0.75100
O684        O  0.14924057  0.43902606  0.37817775    -0.75100
O685        O  0.19187348  0.39464466  0.35806696    -0.75100
O686        O  0.10453420  0.39283405  0.38960538    -0.75200
Ni687      Ni  0.15863882  0.39224880  0.48312187     1.25400
Ni688      Ni  0.14795152  0.39399592  0.37083648     1.25400
C689        C  0.09466407  0.39154536  0.44680415     0.87100
C690        C  0.21164914  0.39366184  0.40455590     0.87000
C691        C  0.15512309  0.45265844  0.43184472     0.87100
C692        C  0.15169751  0.33373869  0.42488275     0.87200
O693        O  0.42422403  0.13578495  0.36175514    -0.75100
O694        O  0.33463797  0.13439839  0.34333599    -0.75100
O695        O  0.37846871  0.09057035  0.35560887    -0.75200
O696        O  0.38053408  0.17929825  0.35119460    -0.75200
O697        O  0.38283435  0.17838763  0.49544932    -0.75100
O698        O  0.38354962  0.08888093  0.50180305    -0.75100
O699        O  0.33873719  0.13168202  0.49008041    -0.75100
O700        O  0.42760615  0.13589980  0.50552142    -0.75200
Ni701      Ni  0.37927440  0.13498970  0.35673017     1.25400
Ni702      Ni  0.38326348  0.13361747  0.49438638     1.25400
C703        C  0.44076546  0.13702703  0.31136587     0.87100
C704        C  0.32216601  0.13295857  0.28715325     0.87000
C705        C  0.38132044  0.07521692  0.30406195     0.87100
C706        C  0.38240200  0.19374818  0.29772506     0.87200
O707        O  0.09946638  0.14229664  0.35777418    -0.75100
O708        O  0.18427497  0.13485501  0.41596436    -0.75100
O709        O  0.13704094  0.09413866  0.38556929    -0.75200
O710        O  0.14701441  0.18331468  0.38902641    -0.75200
O711        O  0.13052315  0.18371531  0.48880521    -0.75100
O712        O  0.12333814  0.09419917  0.48776432    -0.75100
O713        O  0.16936633  0.13650014  0.51724687    -0.75100
O714        O  0.08423551  0.14168018  0.45898412    -0.75200
Ni715      Ni  0.14245768  0.13867543  0.38350432     1.25400
Ni716      Ni  0.12625420  0.13899583  0.49175704     1.25400
C717        C  0.07790476  0.14353282  0.39894781     0.87100
C718        C  0.19076870  0.13417487  0.47596623     0.87000
C719        C  0.12931344  0.07945332  0.43665451     0.87100
C720        C  0.14005048  0.19845429  0.43915393     0.87200
O721        O  0.65076533  0.43256078  0.27931480    -0.75100
O722        O  0.64503296  0.34448862  0.48676670    -0.75100
O723        O  0.69147320  0.38853704  0.50383817    -0.75200
O724        O  0.60440093  0.38842688  0.26495977    -0.75200
O725        O  0.59893888  0.39923317  0.40760513    -0.75100
O726        O  0.68914495  0.39956138  0.39976847    -0.75100
O727        O  0.64223223  0.35632474  0.38293075    -0.75100
O728        O  0.64626043  0.44274333  0.42225964    -0.75200
Ni729      Ni  0.64873854  0.38816326  0.26317365     1.25400
Ni730      Ni  0.64399492  0.39992144  0.39947564     1.25400
C731        C  0.64818638  0.45196729  0.48014334     0.87100
C732        C  0.64287547  0.33610502  0.42798673     0.87000
C733        C  0.70513800  0.39375974  0.45090166     0.87100
C734        C  0.58602247  0.39294780  0.46126298     0.87200
O735        O  0.63241294  0.11238204  0.24707935    -0.75100
O736        O  0.63681436  0.19917601  0.29313567    -0.75100
O737        O  0.67885479  0.15532033  0.26891709    -0.75200
O738        O  0.58989809  0.15631502  0.27011719    -0.75200
O739        O  0.59047689  0.14326997  0.37332007    -0.75100
O740        O  0.67970139  0.14252381  0.37221228    -0.75100
O741        O  0.63711330  0.18574508  0.39624853    -0.75100
O742        O  0.63294888  0.09974714  0.35059074    -0.75200
Ni743      Ni  0.63441645  0.15630778  0.26610513     1.25400
Ni744      Ni  0.63509671  0.14234430  0.37670143     1.25400
C745        C  0.63190840  0.09176165  0.29175740     0.87100
C746        C  0.63795421  0.20665668  0.35244424     0.87000
C747        C  0.69401300  0.14854303  0.32019662     0.87100
C748        C  0.57543800  0.15005061  0.32174731     0.87200
O749        O  0.90217065  0.44228533  0.39667144    -0.75100
O750        O  0.89847502  0.35323502  0.42370989    -0.75100
O751        O  0.85565774  0.39819111  0.40628993    -0.75200
O752        O  0.94498650  0.39689592  0.41162955    -0.75200
O753        O  0.94680174  0.40524892  0.26755033    -0.75100
O754        O  0.85665079  0.40437366  0.26209974    -0.75100
O755        O  0.90045546  0.36126976  0.27985630    -0.75100
O756        O  0.90232828  0.44898038  0.25139171    -0.75200
Ni757      Ni  0.90036074  0.39744793  0.40576816     1.25400
Ni758      Ni  0.90163103  0.40531730  0.26890718     1.25400
C759        C  0.90177162  0.46018037  0.44552370     0.87100
C760        C  0.89951005  0.34268114  0.23242424     0.87000
C761        C  0.84073122  0.40116949  0.45806178     0.87100
C762        C  0.96018265  0.40015065  0.46464275     0.87200
O763        O  0.88517648  0.11626977  0.39873886    -0.75100
O764        O  0.88856618  0.20321320  0.35474612    -0.75100
O765        O  0.84257346  0.15955086  0.37165812    -0.75200
O766        O  0.93125898  0.15965207  0.38256354    -0.75200
O767        O  0.93364175  0.14766243  0.27952298    -0.75100
O768        O  0.84403353  0.14821350  0.26790919    -0.75100
O769        O  0.89079273  0.19130773  0.25150577    -0.75100
O770        O  0.88731956  0.10489347  0.29522137    -0.75200
Ni771      Ni  0.88684256  0.16016950  0.38053871     1.25400
Ni772      Ni  0.88894687  0.14762585  0.26978076     1.25400
C773        C  0.88604096  0.09627737  0.35380374     0.87100
C774        C  0.88994578  0.21156436  0.29587689     0.87000
C775        C  0.82866691  0.15383074  0.31822740     0.87100
C776        C  0.94715388  0.15305810  0.33364769     0.87200
O777        O  0.62040201  0.64640664  0.43947456    -0.75100
O778        O  0.70749426  0.64950117  0.24604541    -0.75100
O779        O  0.66512322  0.60390509  0.21077661    -0.75200
O780        O  0.66294426  0.69244884  0.22220635    -0.75200
O781        O  0.64783406  0.68878556  0.32339844    -0.75100
O782        O  0.65216122  0.59932965  0.31273301    -0.75100
O783        O  0.69250200  0.64672107  0.34733001    -0.75100
O784        O  0.60713687  0.64090240  0.29136438    -0.75200
Ni785      Ni  0.66479710  0.64824363  0.21365423     1.25400
Ni786      Ni  0.64939294  0.64381324  0.32232926     1.25400
C787        C  0.60006419  0.64220927  0.23176765     0.87100
C788        C  0.71410984  0.64854340  0.30623726     0.87000
C789        C  0.65919176  0.58684587  0.25947995     0.87100
C790        C  0.65469158  0.70527268  0.27388358     0.87200
O791        O  0.93982292  0.65482540  0.49495229    -0.75100
O792        O  0.85181912  0.65459662  0.45447262    -0.75100
O793        O  0.89421506  0.61012780  0.47797128    -0.75200
O794        O  0.89712990  0.69889859  0.47259288    -0.75200
O795        O  0.90616686  0.69796261  0.36801191    -0.75100
O796        O  0.90551920  0.60876082  0.37467941    -0.75100
O797        O  0.86262635  0.65231237  0.35098446    -0.75100
O798        O  0.94988380  0.65488806  0.39085412    -0.75200
Ni799      Ni  0.89543663  0.65462044  0.47877071     1.25400
Ni800      Ni  0.90650888  0.65339928  0.36748171     1.25400
C801        C  0.95931918  0.65551241  0.44926594     0.87100
C802        C  0.84282639  0.65356514  0.39569389     0.87000
C803        C  0.89897173  0.59469669  0.42725911     0.87100
C804        C  0.90111357  0.71295931  0.41922107     0.87200
O805        O  0.60640954  0.89745084  0.33639326    -0.75100
O806        O  0.69279811  0.90394673  0.29108980    -0.75100
O807        O  0.64732181  0.94501899  0.31181412    -0.75200
O808        O  0.65190397  0.85585071  0.31486380    -0.75200
O809        O  0.63772259  0.85418065  0.46236896    -0.75100
O810        O  0.63397062  0.94368912  0.46047891    -0.75100
O811        O  0.67914165  0.90204234  0.43886404    -0.75100
O812        O  0.59283654  0.89649917  0.23304221    -0.75200
Ni813      Ni  0.65012023  0.90059333  0.31716255     1.25400
Ni814      Ni  0.63541011  0.89887323  0.45768181     1.25400
C815        C  0.58533001  0.89602829  0.29207082     0.87100
C816        C  0.70034495  0.90391906  0.23217230     0.87000
C817        C  0.64013407  0.95907168  0.25954957     0.87100
C818        C  0.64516479  0.84019457  0.26411814     0.87200
O819        O  0.93200841  0.90314302  0.34550429    -0.75100
O820        O  0.84282961  0.90324007  0.36840961    -0.75100
O821        O  0.88840687  0.94763691  0.34898267    -0.75200
O822        O  0.88683762  0.85922174  0.36307105    -0.75200
O823        O  0.89527601  0.86260969  0.46825161    -0.75100
O824        O  0.89495955  0.95173308  0.45461449    -0.75100
O825        O  0.85094163  0.90635090  0.47369366    -0.75100
O826        O  0.93922631  0.90783496  0.45074680    -0.75200
Ni827      Ni  0.88716174  0.90324359  0.35272563     1.25400
Ni828      Ni  0.89531273  0.90729752  0.46556943     1.25400
C829        C  0.95030093  0.90511550  0.39482644     0.87100
C830        C  0.83223542  0.90460916  0.42525128     0.87000
C831        C  0.89207513  0.96426643  0.39914376     0.87100
C832        C  0.89199095  0.84631664  0.41734727     0.87200
C833        C  0.73369073  0.90642459  0.46594926    -0.06800
C834        C  0.74391705  0.88828142  0.41525941    -0.17900
C835        C  0.77570339  0.88697818  0.40076272     0.10400
C836        C  0.79807682  0.90490430  0.43652152    -0.06700
C837        C  0.78770152  0.92355909  0.48620498    -0.17900
C838        C  0.75571181  0.92576711  0.24814045     0.10500
S839        S  0.78620958  0.86024722  0.33944493    -0.32900
S840        S  0.74486403  0.95364646  0.30713083    -0.32900
H841        H  0.71563437  0.96003136  0.27942765     0.28500
H842        H  0.81302285  0.84984541  0.37196533     0.28500
H843        H  0.72715467  0.87383082  0.38849586     0.19100
H844        H  0.80397196  0.93969230  0.26021276     0.19100
C845        C  0.89915126  0.74695795  0.41714765    -0.06800
C846        C  0.91662435  0.76462221  0.46192875    -0.17900
C847        C  0.91512124  0.79702395  0.46281681     0.10400
C848        C  0.89457285  0.81214990  0.41981463    -0.06700
C849        C  0.87687581  0.79425516  0.37537050    -0.17900
C850        C  0.87900474  0.76185721  0.37348327     0.10500
S851        S  0.94157144  0.81756256  0.51683653    -0.32900
S852        S  0.85427838  0.73965091  0.31839842    -0.32900
H853        H  0.84396913  0.76506305  0.28174749     0.28500
H854        H  0.95077910  0.84003697  0.47109955     0.28500
H855        H  0.93219331  0.75310884  0.49537619     0.19100
H856        H  0.86103513  0.80569553  0.34247235     0.19100
C857        C  0.65219040  0.73957163  0.27431925    -0.06800
C858        C  0.63195303  0.75298892  0.22936052    -0.17900
C859        C  0.62932147  0.78491257  0.47435707     0.10400
C860        C  0.64702996  0.80539525  0.26571937    -0.06700
C861        C  0.66718461  0.79166705  0.31127334    -0.17900
C862        C  0.67010732  0.75922980  0.31562224     0.10500
S863        S  0.60032136  0.79799688  0.41786608    -0.32900
S864        S  0.69813104  0.74448483  0.37262617    -0.32900
H865        H  0.70718140  0.71984950  0.33412099     0.28500
H866        H  0.62119073  0.81690338  0.38374607     0.28500
H867        H  0.61808611  0.73760776  0.44793788     0.19100
H868        H  0.68124693  0.80635308  0.34327140     0.19100
C869        C  0.80931865  0.65226744  0.37746585    -0.06800
C870        C  0.80010679  0.63154907  0.32878992    -0.17900
C871        C  0.76948943  0.62983700  0.30515684     0.10400
C872        C  0.74700327  0.64950797  0.32962849    -0.06700
C873        C  0.75601692  0.67012750  0.37901178    -0.17900
C874        C  0.78690343  0.67196234  0.40275074     0.10500
S875        S  0.76039419  0.60056587  0.24678320    -0.32900
S876        S  0.79677487  0.70225381  0.45924473    -0.32900
H877        H  0.81067126  0.68250812  0.50427000     0.28500
H878        H  0.73339970  0.59010345  0.27867391     0.28500
H879        H  0.81700028  0.61630426  0.30906850     0.19100
H880        H  0.73903045  0.68533521  0.39851376     0.19100
C881        C  0.88727838  0.06272869  0.36873155    -0.06800
C882        C  0.90837269  0.04540134  0.33464220    -0.19500
C883        C  0.91146497  0.01366297  0.34602014     0.10400
C884        C  0.89277515  0.99838933  0.39211765    -0.06700
C885        C  0.87212945  0.01573885  0.42754258    -0.17900
C886        C  0.86872415  0.04760228  0.41543998     0.10500
S887        S  0.94032774  0.99440072  0.30090391    -0.32900
S888        S  0.83820163  0.06672254  0.45604787    -0.32900
H889        H  0.82998226  0.08501197  0.40284698     0.28500
H890        H  0.94687034  0.97149881  0.34697592     0.28500
H891        H  0.92295112  0.05680696  0.29916759     0.19100
H892        H  0.85729740  0.00405468  0.46218782     0.19100
C893        C  0.90081032  0.49446923  0.43794938    -0.06800
C894        C  0.88106918  0.51066907  0.47769136    -0.17900
C895        C  0.87889980  0.54303699  0.47351306     0.10400
C896        C  0.89761827  0.56016848  0.42973393    -0.06700
C897        C  0.91687033  0.54388444  0.38916678    -0.17900
C898        C  0.91894040  0.51150780  0.39343955     0.10500
S899        S  0.85061540  0.56058065  0.52318153    -0.32900
S900        S  0.94715626  0.49387775  0.34467275    -0.32900
H901        H  0.95690896  0.47289480  0.39245097     0.28500
H902        H  0.84046873  0.58149627  0.47558213     0.28500
H903        H  0.86667048  0.49789852  0.51158889     0.19100
H904        H  0.93154426  0.55658699  0.35568381     0.19100
C905        C  0.89708154  0.30888796  0.24586567    -0.06800
C906        C  0.87719316  0.29869516  0.29477665    -0.17900
C907        C  0.87364032  0.26717329  0.31087285     0.10400
C908        C  0.89099006  0.24500442  0.27845767    -0.06700
C909        C  0.91054629  0.25512362  0.22878387    -0.17900
C910        C  0.91421733  0.28706429  0.46330637     0.10500
S911        S  0.84571232  0.25698931  0.37150463    -0.32900
S912        S  0.94290958  0.29818383  0.40495863    -0.32900
H913        H  0.95287571  0.32571823  0.43618915     0.28500
H914        H  0.83535306  0.22873847  0.34381352     0.28500
H915        H  0.86380487  0.31546495  0.32011168     0.19100
H916        H  0.92531374  0.23887525  0.45582629     0.19100
C917        C  0.63064865  0.05812566  0.27633687    -0.06800
C918        C  0.65087329  0.04670358  0.23068922    -0.17900
C919        C  0.65423576  0.01452937  0.22242620     0.10400
C920        C  0.63674970  0.99321097  0.26065982    -0.06700
C921        C  0.61549522  0.00476042  0.30389966    -0.17900
C922        C  0.61188723  0.03672648  0.31135016     0.10500
S923        S  0.67797352  0.00205356  0.41297145    -0.32900
S924        S  0.58245187  0.04872529  0.36550312    -0.32900
H925        H  0.57461745  0.07553159  0.33042254     0.28500
H926        H  0.68680933  0.97415720  0.44238836     0.28500
H927        H  0.66524095  0.06293928  0.20336688     0.19100
H928        H  0.60150732  0.98862730  0.33234157     0.19100
C929        C  0.79434592  0.15275077  0.31628731    -0.06800
C930        C  0.77907302  0.13438429  0.36243929    -0.17900
C931        C  0.74659052  0.13138896  0.36335806     0.10400
C932        C  0.72851629  0.14848278  0.31891955    -0.06700
C933        C  0.74389149  0.16702371  0.27276584    -0.17900
C934        C  0.77648600  0.16951067  0.27116027     0.10500
S935        S  0.73009366  0.10410158  0.42028830    -0.32900
S936        S  0.79333179  0.19600023  0.21305559    -0.32900
H937        H  0.82143500  0.20281170  0.24631516     0.28500
H938        H  0.70784482  0.09123659  0.37673781     0.28500
H939        H  0.79259323  0.12177962  0.39769156     0.19100
H940        H  0.73043801  0.18044751  0.23857443     0.19100
C941        C  0.65105095  0.48599148  0.49134093    -0.06800
C942        C  0.67047660  0.50353077  0.45080276    -0.17900
C943        C  0.67385304  0.53590019  0.45543735     0.10400
C944        C  0.65907704  0.55227071  0.25373509    -0.06700
C945        C  0.63954702  0.53467342  0.29456085    -0.17900
C946        C  0.63583682  0.50229338  0.28900628     0.10500
S947        S  0.69954925  0.55390268  0.39755825    -0.32900
S948        S  0.60602177  0.48357385  0.33574589    -0.32900
H949        H  0.59695967  0.46118257  0.28976380     0.28500
H950        H  0.70873157  0.58026637  0.43160837     0.28500
H951        H  0.68324600  0.49175435  0.41443558     0.19100
H952        H  0.62568848  0.54640316  0.32916774     0.19100
C953        C  0.80608922  0.40006956  0.45550932    -0.06800
C954        C  0.79020216  0.37918839  0.49614257    -0.17900
C955        C  0.75761262  0.37533020  0.49294607     0.10400
C956        C  0.73989626  0.39376703  0.44992665    -0.06700
C957        C  0.75589310  0.41427269  0.40837837    -0.17900
C958        C  0.78860336  0.41772667  0.41091444     0.10500
S959        S  0.74038750  0.34510896  0.54249181    -0.32900
S960        S  0.80646507  0.44625010  0.35832222    -0.32900
H961        H  0.83078530  0.45530142  0.40109942     0.28500
H962        H  0.71780205  0.33538327  0.49638534     0.28500
H963        H  0.80341354  0.36491881  0.52924653     0.19100
H964        H  0.74279114  0.42858274  0.37519794     0.19100
C965        C  0.64145775  0.30276977  0.41055982    -0.06800
C966        C  0.66038323  0.29302430  0.36099145    -0.17900
C967        C  0.66017998  0.26187395  0.34171975     0.10400
C968        C  0.64000467  0.23978730  0.37149115    -0.06700
C969        C  0.62116581  0.24951037  0.42126365    -0.17900
C970        C  0.62133667  0.28069736  0.44042542     0.10500
S971        S  0.68723823  0.25232340  0.03117197    -0.32900
S972        S  0.59403144  0.29113834  0.50030570    -0.32900
H973        H  0.58668773  0.31967928  0.47133951     0.28500
H974        H  0.69435882  0.22261638  0.30823463     0.28500
H975        H  0.67664824  0.31034255  0.08901956     0.19100
H976        H  0.60544791  0.23282887  0.44414590     0.19100
C977        C  0.04528522  0.14779870  0.37719221    -0.06800
C978        C  0.03196923  0.12847093  0.32944146    -0.17900
C979        C  0.00028475  0.13027291  0.31158312     0.10400
C980        C  0.98150883  0.15213807  0.34179347    -0.06700
C981        C  0.99538564  0.17213506  0.38752437    -0.17900
C982        C  0.02673280  0.17027222  0.40514321     0.10500
S983        S  0.98468970  0.10182361  0.25579878    -0.32900
S984        S  0.04171141  0.19781222  0.46284594    -0.32900
H985        H  0.07000885  0.20301003  0.43106182     0.28500
H986        H  0.97292114  0.12413985  0.21328349     0.28500
H987        H  0.04600134  0.11108062  0.30767156     0.19100
H988        H  0.98151842  0.18927013  0.41064670     0.19100
C989        C  0.54087907  0.14923782  0.32146049    -0.06800
C990        C  0.52563754  0.12896245  0.36442098    -0.17900
C991        C  0.49325069  0.12422780  0.36195009     0.10400
C992        C  0.47516587  0.14052059  0.31645353    -0.06700
C993        C  0.49028987  0.16138710  0.27443485    -0.17900
C994        C  0.52270577  0.16634294  0.27708937     0.10500
S995        S  0.47699608  0.09531557  0.41494166    -0.32900
S996        S  0.53913084  0.19573122  0.47443532    -0.32900
H997        H  0.56086587  0.20758428  0.27033973     0.28500
H998        H  0.45467371  0.08367436  0.37028441     0.28500
H999        H  0.53915097  0.11557443  0.39858790     0.19100
H1000       H  0.47670146  0.17416946  0.48896233     0.19100
C1001       C  0.28771899  0.13092237  0.53144663    -0.06800
C1002       C  0.27509134  0.11032417  0.48519293    -0.17900
C1003       C  0.24337540  0.10992727  0.46831754     0.10400
C1004       C  0.22350879  0.13091321  0.49757976    -0.06700
C1005       C  0.23575271  0.15071485  0.54556119    -0.17900
C1006       C  0.26756534  0.15106697  0.56260501     0.10500
S1007       S  0.22975789  0.08196255  0.40932290    -0.32900
S1008       S  0.28143289  0.18060461  0.61762799    -0.32900
H1009       H  0.29651954  0.15981819  0.65871424     0.28500
H1010       H  0.20052216  0.07618810  0.43700592     0.28500
H1011       H  0.29007034  0.09494779  0.20841095     0.19100
H1012       H  0.22072269  0.16710282  0.56778858     0.19100
C1013       C  0.06045238  0.39047195  0.45655099    -0.06800
C1014       C  0.04805636  0.40959895  0.50294187    -0.17900
C1015       C  0.01574792  0.41329863  0.50691060     0.10400
C1016       C  0.99484431  0.39712026  0.46456629    -0.06700
C1017       C  0.00741555  0.37700744  0.41979981    -0.17900
C1018       C  0.03965155  0.37316976  0.41598375     0.10500
S1019       S  0.00316662  0.44144286  0.56250991    -0.32900
S1020       S  0.05263621  0.34499653  0.35969004    -0.32900
H1021       H  0.07843778  0.33577662  0.39710229     0.28500
H1022       H  0.98320890  0.45509843  0.51683115     0.28500
H1023       H  0.06372440  0.42313650  0.53405611     0.19100
H1024       H  0.99197780  0.36387359  0.38755674     0.19100
C1025       C  0.14335834  0.23334488  0.43858011    -0.06800
C1026       C  0.16358272  0.24760404  0.39384312    -0.17900
C1027       C  0.16682500  0.28010983  0.38779151     0.10400
C1028       C  0.14928443  0.29932176  0.42667778    -0.06700
C1029       C  0.12940496  0.28543953  0.47156406    -0.17900
C1030       C  0.12623536  0.25309163  0.47829791     0.10500
S1031       S  0.19474641  0.29562360  0.33190250    -0.32900
S1032       S  0.09781774  0.23926379  0.28667915    -0.32900
H1033       H  0.11824904  0.21953246  0.31798026     0.28500
H1034       H  0.20475282  0.32061686  0.37095637     0.28500
H1035       H  0.17720848  0.23330183  0.36325412     0.19100
H1036       H  0.11596826  0.30011728  0.50185704     0.19100
C1037       C  0.48809907  0.38613705  0.24760779    -0.06800
C1038       C  0.49925331  0.40635815  0.19966294    -0.17900
C1039       C  0.52992014  0.40806998  0.43204635     0.10400
C1040       C  0.55150498  0.39010667  0.46734348    -0.06700
C1041       C  0.53993832  0.36883519  0.51305520    -0.17900
C1042       C  0.50815635  0.36578715  0.52533665     0.10500
S1043       S  0.54318388  0.43850212  0.13022459    -0.32900
S1044       S  0.49629206  0.33676123  0.58297947    -0.32900
H1045       H  0.46987007  0.32968045  0.30457998     0.28500
H1046       H  0.56475191  0.44995333  0.41768692     0.28500
H1047       H  0.48311312  0.42108863  0.17402991     0.19100
H1048       H  0.55584586  0.35440197  0.54004348     0.19100
C1049       C  0.38489356  0.22807057  0.29844746    -0.06800
C1050       C  0.40568627  0.24215398  0.34295141    -0.17900
C1051       C  0.40974600  0.27452495  0.34644092     0.10400
C1052       C  0.39232840  0.29381351  0.30459066    -0.06700
C1053       C  0.37053356  0.27881384  0.51024718    -0.17900
C1054       C  0.36674520  0.24641245  0.50716572     0.10500
S1055       S  0.43953180  0.28889940  0.40143031    -0.32900
S1056       S  0.33800056  0.23061656  0.45124140    -0.32900
H1057       H  0.32809255  0.20568997  0.49064411     0.28500
H1058       H  0.41918804  0.30694983  0.43517401     0.28500
H1059       H  0.41940820  0.22768625  0.37477152     0.19100
H1060       H  0.35654503  0.29281888  0.47807834     0.19100
C1061       C  0.30828117  0.38819225  0.35311279    -0.06800
C1062       C  0.30007794  0.40782344  0.40303951    -0.17900
C1063       C  0.26891036  0.41025201  0.42095553     0.10400
C1064       C  0.24520155  0.39234475  0.38915941    -0.06700
C1065       C  0.25351736  0.37263878  0.33948843    -0.17900
C1066       C  0.28462083  0.36986801  0.32209965     0.10500
S1067       S  0.26068891  0.43831495  0.48101744    -0.32900
S1068       S  0.29256098  0.34155180  0.26187933    -0.32900
H1069       H  0.32068642  0.33208327  0.29065157     0.28500
H1070       H  0.23384125  0.44870702  0.44867333     0.28500
H1071       H  0.31792945  0.42228755  0.42669951     0.19100
H1072       H  0.23564364  0.35881328  0.31446932     0.19100
C1073       C  0.13684287  0.97963051  0.42902043    -0.06800
C1074       C  0.11639573  0.99517882  0.38687867    -0.17900
C1075       C  0.11214582  0.02728470  0.39041586     0.10400
C1076       C  0.12876605  0.04496688  0.43703426    -0.06700
C1077       C  0.14816519  0.02963333  0.48100822    -0.17900
C1078       C  0.15289264  0.99747304  0.47729945     0.10500
S1079       S  0.08481093  0.04422152  0.33454171    -0.32900
S1080       S  0.18227098  0.98305498  0.53188795    -0.32900
H1081       H  0.18184706  0.95213691  0.51288728     0.28500
H1082       H  0.07643530  0.06866425  0.37434607     0.28500
H1083       H  0.10357950  0.98213092  0.35013324     0.19100
H1084       H  0.16122142  0.04324131  0.51657055     0.19100
C1085       C  0.04913757  0.89108721  0.38268311    -0.06800
C1086       C  0.03794404  0.91186681  0.42732963    -0.17900
C1087       C  0.00626537  0.91816447  0.43001169     0.10400
C1088       C  0.98460709  0.90279830  0.38802771    -0.06700
C1089       C  0.99598351  0.88237528  0.34237921    -0.17900
C1090       C  0.02788804  0.87610003  0.33965834     0.10500
S1091       S  0.99557007  0.94716761  0.48633630    -0.32900
S1092       S  0.03962383  0.84747272  0.28313224    -0.32900
H1093       H  0.06582316  0.83750909  0.31826869     0.28500
H1094       H  0.97220752  0.95964310  0.44665347     0.28500
H1095       H  0.05423795  0.92389115  0.45977055     0.19100
H1096       H  0.97978279  0.87036631  0.31001890     0.19100
C1097       C  0.15199995  0.55299607  0.44939118    -0.06800
C1098       C  0.17141793  0.53580803  0.49022767    -0.17900
C1099       C  0.17351949  0.50345068  0.48492821     0.10400
C1100       C  0.15604384  0.48734635  0.43638714    -0.06700
C1101       C  0.13744312  0.50468691  0.39397339    -0.17900
C1102       C  0.13470363  0.53698006  0.40090220     0.10500
S1103       S  0.20173066  0.48356314  0.29378563    -0.32900
S1104       S  0.10621408  0.55551893  0.35110266    -0.32900
H1105       H  0.09630144  0.57465240  0.40039788     0.28500
H1106       H  0.20908558  0.50902284  0.33383472     0.28500
H1107       H  0.18725936  0.54795678  0.28035034     0.19100
H1108       H  0.12354584  0.49276916  0.35724649     0.19100
C1109       C  0.05849623  0.65086500  0.48366975    -0.06800
C1110       C  0.04656396  0.67182032  0.43795536    -0.17900
C1111       C  0.01445866  0.67500462  0.42810999     0.10400
C1112       C  0.99325004  0.65640648  0.46372034    -0.06700
C1113       C  0.00486932  0.63662810  0.51149195    -0.17900
C1114       C  0.03713390  0.63376631  0.52218314     0.10500
S1115       S  0.00213146  0.70370187  0.37028655    -0.32900
S1116       S  0.05003195  0.60671135  0.58230902    -0.32900
H1117       H  0.02095477  0.60093185  0.61076671     0.28500
H1118       H  0.97546863  0.71200365  0.40345281     0.28500
H1119       H  0.06241619  0.68591470  0.40923226     0.19100
H1120       H  0.98853596  0.62248570  0.53889913     0.19100
C1121       C  0.15174323  0.73613375  0.28737112    -0.06800
C1122       C  0.12848813  0.74329412  0.33099452    -0.17900
C1123       C  0.12595232  0.77340700  0.35559120     0.10400
C1124       C  0.14697440  0.79747376  0.33628787    -0.06700
C1125       C  0.17024778  0.79031037  0.54239904    -0.17900
C1126       C  0.17282043  0.76007003  0.51819996     0.10500
S1127       S  0.09408656  0.78019414  0.40776853    -0.32900
S1128       S  0.20368930  0.75351205  0.46342829    -0.32900
H1129       H  0.18368822  0.74087935  0.41572687     0.28500
H1130       H  0.11344993  0.79163912  0.45780407     0.28500
H1131       H  0.11210651  0.72513255  0.34633459     0.19100
H1132       H  0.18589607  0.80868912  0.52515418     0.19100
C1133       C  0.38347651  0.97591746  0.32901585    -0.06800
C1134       C  0.40245775  0.99050438  0.28345869    -0.17900
C1135       C  0.40185255  0.02264203  0.27326624     0.10400
C1136       C  0.38143984  0.04080820  0.30849383    -0.06700
C1137       C  0.36147872  0.02580447  0.35227383    -0.17900
C1138       C  0.36203657  0.99360719  0.36229475     0.10500
S1139       S  0.42951292  0.03902087  0.21854692    -0.32900
S1140       S  0.33879336  0.97712648  0.67879147    -0.32900
H1141       H  0.32948582  0.94881467  0.38091014     0.28500
H1142       H  0.43860879  0.06373597  0.25923004     0.28500
H1143       H  0.41886626  0.97694011  0.25756521     0.19100
H1144       H  0.34947155  0.03973986  0.63949410     0.19100
C1145       C  0.48725169  0.89342501  0.33716962    -0.06800
C1146       C  0.49857464  0.87448390  0.28905849    -0.17900
C1147       C  0.53027096  0.87422109  0.27530936     0.10400
C1148       C  0.55181914  0.89385144  0.30899417    -0.06700
C1149       C  0.54076650  0.91264730  0.35784423    -0.17900
C1150       C  0.50878322  0.91294598  0.37176404     0.10500
S1151       S  0.54190621  0.84674721  0.21682909    -0.32900
S1152       S  0.49691836  0.94003660  0.43118258    -0.32900
H1153       H  0.46983531  0.94881732  0.39734562     0.28500
H1154       H  0.56862055  0.83841944  0.25236970     0.28500
H1155       H  0.48263177  0.85898626  0.26267473     0.19100
H1156       H  0.55697463  0.92805191  0.38376076     0.19100
C1157       C  0.30124850  0.87860462  0.38980109    -0.06800
C1158       C  0.28864573  0.89834879  0.43509261    -0.17900
C1159       C  0.25645259  0.90263851  0.43723645     0.10400
C1160       C  0.23607676  0.88626655  0.39460906    -0.06700
C1161       C  0.24843215  0.86542077  0.35172688    -0.17900
C1162       C  0.28049686  0.86118571  0.34930154     0.10500
S1163       S  0.24316382  0.93148485  0.49074666    -0.32900
S1164       S  0.29290105  0.83201093  0.29560607    -0.32900
H1165       H  0.31577400  0.82112391  0.33867869     0.28500
H1166       H  0.22294977  0.94419657  0.44431709     0.28500
H1167       H  0.30403111  0.91188234  0.46675667     0.19100
H1168       H  0.23285550  0.85206240  0.32004690     0.19100
C1169       C  0.40081784  0.54614044  0.50885307    -0.06800
C1170       C  0.42272841  0.53384927  0.30855560    -0.17900
C1171       C  0.42223538  0.50173844  0.32165594     0.10400
C1172       C  0.39986788  0.48187315  0.29026612    -0.06700
C1173       C  0.37773251  0.49520070  0.24870319    -0.17900
C1174       C  0.37802516  0.52718632  0.23625763     0.10500
S1175       S  0.45271392  0.48738652  0.37337243    -0.32900
S1176       S  0.34745791  0.54164376  0.18458215    -0.32900
H1177       H  0.34460748  0.56699846  0.45230305     0.28500
H1178       H  0.43189594  0.47360761  0.41688402     0.28500
H1179       H  0.43690690  0.54868833  0.58217472     0.19100
H1180       H  0.36002561  0.48048529  0.22519602     0.19100
C1181       C  0.50022546  0.63938743  0.45350805    -0.06800
C1182       C  0.51662274  0.61170970  0.45049786    -0.17900
C1183       C  0.54939492  0.61216677  0.45490974     0.10400
C1184       C  0.56684859  0.64007252  0.21272316    -0.06700
C1185       C  0.55067831  0.66775167  0.21006134    -0.17900
C1186       C  0.51801101  0.66736643  0.20642917     0.10500
S1187       S  0.56856931  0.57543189  0.45456611    -0.32900
S1188       S  0.49837379  0.70368144  0.20854460    -0.32900
H1189       H  0.52508883  0.72341049  0.21453752     0.28500
H1190       H  0.59645463  0.58704469  0.42784722     0.28500
H1191       H  0.50382390  0.58959041  0.44714502     0.19100
H1192       H  0.56372000  0.68967874  0.21446833     0.19100
C1193       C  0.24637326  0.63969410  0.48872315    -0.06800
C1194       C  0.26518552  0.65777200  0.53057796    -0.17900
C1195       C  0.29780636  0.65872254  0.52617895     0.10400
C1196       C  0.31241895  0.64023504  0.48022888    -0.06700
C1197       C  0.29341882  0.62182379  0.43892268    -0.17900
C1198       C  0.26081110  0.62111046  0.44307028     0.10500
S1199       S  0.31898692  0.68596423  0.57725921    -0.32900
S1200       S  0.23903459  0.59486045  0.39069102    -0.32900
H1201       H  0.21580224  0.58725417  0.43497982     0.28500
H1202       H  0.33926989  0.69621430  0.52913092     0.28500
H1203       H  0.25430926  0.67240574  0.56509459     0.19100
H1204       H  0.30404408  0.60731549  0.40386046     0.19100
C1205       C  0.40754151  0.72923752  0.42456742    -0.06800
C1206       C  0.38781233  0.74688211  0.46131741    -0.17900
C1207       C  0.38408096  0.77848185  0.44921489     0.10400
C1208       C  0.40178205  0.79376010  0.40175282    -0.06700
C1209       C  0.42179819  0.77639258  0.36516392    -0.17900
C1210       C  0.42506246  0.74443979  0.37605107     0.10500
S1211       S  0.35499354  0.79678801  0.24067800    -0.32900
S1212       S  0.45362793  0.72613983  0.32858208    -0.32900
H1213       H  0.45442191  0.69714779  0.35911650     0.28500
H1214       H  0.34545461  0.81726019  0.44233711     0.28500
H1215       H  0.37470094  0.73541535  0.24632713     0.19100
H1216       H  0.43547455  0.78797868  0.32845984     0.19100
O1217       O  0.40815759  0.59952936  0.53851146    -0.75100
O1218       O  0.40916739  0.68672005  0.74806211    -0.75100
O1219       O  0.36452403  0.64381982  0.77841993    -0.75200
O1220       O  0.45347303  0.64349090  0.51146982    -0.75200
O1221       O  0.44879706  0.63031447  0.66218628    -0.75100
O1222       O  0.35910532  0.63292766  0.67493631    -0.75100
O1223       O  0.40545310  0.67473692  0.64481683    -0.75100
O1224       O  0.40191151  0.58825000  0.69123780    -0.75200
Ni1225     Ni  0.40907731  0.64353387  0.52158905     1.25400
Ni1226     Ni  0.40368960  0.63102317  0.66458328     1.25400
C1227       C  0.40405531  0.58006307  0.75013190     0.87100
C1228       C  0.40776973  0.69503476  0.68922320     0.87000
C1229       C  0.34701963  0.63918235  0.72885298     0.87100
C1230       C  0.46593789  0.63756054  0.71125446     0.87200
O1231       O  0.38576147  0.92313538  0.54695572    -0.75100
O1232       O  0.39517275  0.83638071  0.58055295    -0.75100
O1233       O  0.34638341  0.87517430  0.57605951    -0.75200
O1234       O  0.43428927  0.88445705  0.55121110    -0.75200
O1235       O  0.44210844  0.89389539  0.65492807    -0.75100
O1236       O  0.35338582  0.88546470  0.67959816    -0.75100
O1237       O  0.40149573  0.84594236  0.68459408    -0.75100
O1238       O  0.39322816  0.93305025  0.65076766    -0.75200
Ni1239     Ni  0.39017079  0.87940469  0.56011645     1.25400
Ni1240     Ni  0.39792378  0.88992296  0.67126516     1.25400
C1241       C  0.38743891  0.94227744  0.59352038     0.87100
C1242       C  0.39927247  0.82679291  0.63800457     0.87000
C1243       C  0.33521176  0.87931478  0.63150518     0.87100
C1244       C  0.45279230  0.89060160  0.59860967     0.87200
O1245       O  0.15029991  0.60702164  0.66807448    -0.75100
O1246       O  0.15491975  0.69490065  0.70995566    -0.75100
O1247       O  0.19723617  0.64950362  0.68964951    -0.75200
O1248       O  0.10818914  0.65246990  0.68592167    -0.75200
O1249       O  0.10721801  0.63952033  0.53913229    -0.75100
O1250       O  0.19738829  0.63826623  0.54256395    -0.75100
O1251       O  0.15377214  0.68177916  0.56392780    -0.75100
O1252       O  0.15093889  0.59572732  0.52022461    -0.75200
Ni1253     Ni  0.15270008  0.65143830  0.68470166     1.25400
Ni1254     Ni  0.15231911  0.63836405  0.54505507     1.25400
C1255       C  0.15066261  0.58707171  0.71416080     0.87100
C1256       C  0.15471463  0.70266867  0.52014039     0.87000
C1257       C  0.21177586  0.64328655  0.74197985     0.87100
C1258       C  0.09254914  0.64699308  0.73646121     0.87200
O1259       O  0.14007708  0.92623866  0.70798836    -0.75100
O1260       O  0.14284041  0.83851890  0.66557906    -0.75100
O1261       O  0.18619598  0.88442727  0.69316965    -0.75200
O1262       O  0.09695921  0.88058804  0.68298562    -0.75200
O1263       O  0.09775928  0.89137765  0.57856173    -0.75100
O1264       O  0.18732774  0.89665068  0.58946384    -0.75100
O1265       O  0.14476242  0.85107121  0.56228998    -0.75100
O1266       O  0.13993518  0.93716295  0.60386269    -0.75200
Ni1267     Ni  0.14147382  0.88191089  0.69118818     1.25400
Ni1268     Ni  0.14257427  0.89450026  0.58000833     1.25400
C1269       C  0.13862868  0.94611254  0.66185481     0.87100
C1270       C  0.14470581  0.83047362  0.60668588     0.87000
C1271       C  0.20147371  0.89057856  0.64257447     0.87100
C1272       C  0.08271754  0.88644652  0.63007981     0.87200
O1273       O  0.43339394  0.38722810  0.72211839    -0.75100
O1274       O  0.34690622  0.38680734  0.52242885    -0.75100
O1275       O  0.39069629  0.43062770  0.49084668    -0.75200
O1276       O  0.38751274  0.34200185  0.50011720    -0.75200
O1277       O  0.40347319  0.34356691  0.60181245    -0.75100
O1278       O  0.40727266  0.43310976  0.59217589    -0.75100
O1279       O  0.36314517  0.38933984  0.62417480    -0.75100
O1280       O  0.44780729  0.38713877  0.57094972    -0.75200
Ni1281     Ni  0.38874932  0.38623987  0.49197936     1.25400
Ni1282     Ni  0.40604387  0.38840406  0.60091659     1.25400
C1283       C  0.45388736  0.38585462  0.51143016     0.87100
C1284       C  0.34103737  0.38788448  0.58212998     0.87000
C1285       C  0.39937059  0.44666065  0.53974731     0.87100
C1286       C  0.39465759  0.32796617  0.55232946     0.87200
O1287       O  0.11503477  0.39247042  0.74759267    -0.75100
O1288       O  0.20343242  0.39233966  0.71486800    -0.75100
O1289       O  0.16125755  0.43672501  0.73536886    -0.75200
O1290       O  0.15731511  0.34801058  0.73013708    -0.75200
O1291       O  0.14797022  0.34919949  0.62490940    -0.75100
O1292       O  0.15055590  0.43927304  0.63103841    -0.75100
O1293       O  0.19253295  0.39453335  0.61030669    -0.75100
O1294       O  0.10554802  0.39361125  0.64248369    -0.75200
Ni1295     Ni  0.15965992  0.39234221  0.73571794     1.25400
Ni1296     Ni  0.14879638  0.39428971  0.62347442     1.25400
C1297       C  0.09576504  0.39245658  0.69970705     0.87100
C1298       C  0.21234262  0.39325956  0.65662050     0.87000
C1299       C  0.15667210  0.45283283  0.68469333     0.87100
C1300       C  0.15198628  0.33389711  0.67728968     0.87200
O1301       O  0.42454731  0.13588645  0.61173053    -0.75100
O1302       O  0.33491383  0.13405201  0.59588276    -0.75100
O1303       O  0.37905350  0.09052316  0.60756621    -0.75200
O1304       O  0.38063963  0.17912883  0.60182215    -0.75200
O1305       O  0.38222045  0.17887825  0.74472081    -0.75100
O1306       O  0.38278769  0.08933998  0.75175860    -0.75100
O1307       O  0.33796827  0.13215306  0.73974844    -0.75100
O1308       O  0.42694036  0.13632063  0.75521882    -0.75200
Ni1309     Ni  0.37962270  0.13489518  0.60801002     1.25400
Ni1310     Ni  0.38254616  0.13407584  0.74403873     1.25400
C1311       C  0.44077752  0.13684846  0.56091815     0.87100
C1312       C  0.32210167  0.13253099  0.54003252     0.87000
C1313       C  0.38141448  0.07498635  0.55612264     0.87100
C1314       C  0.38222889  0.19339210  0.54813229     0.87200
O1315       O  0.09955754  0.14282591  0.60409177    -0.75100
O1316       O  0.18381241  0.13480398  0.66502036    -0.75100
O1317       O  0.13648894  0.09437932  0.63276553    -0.75200
O1318       O  0.14708420  0.18357974  0.63780211    -0.75200
O1319       O  0.12979594  0.18363482  0.73699862    -0.75100
O1320       O  0.12189659  0.09425738  0.73442663    -0.75100
O1321       O  0.16817698  0.13618812  0.76583879    -0.75100
O1322       O  0.08339667  0.14213192  0.70467949    -0.75200
Ni1323     Ni  0.14227581  0.13893009  0.63136591     1.25400
Ni1324     Ni  0.12517777  0.13900403  0.73902852     1.25400
C1325       C  0.07762768  0.14399792  0.64438829     0.87100
C1326       C  0.18990258  0.13405065  0.72515207     0.87000
C1327       C  0.12808694  0.07961577  0.68333544     0.87100
C1328       C  0.13985613  0.19853292  0.68803301     0.87200
O1329       O  0.64865212  0.43226899  0.52658726    -0.75100
O1330       O  0.64598031  0.34467045  0.73852571    -0.75100
O1331       O  0.69284201  0.38824465  0.75558840    -0.75200
O1332       O  0.60271252  0.38781560  0.51139849    -0.75200
O1333       O  0.60032015  0.39982311  0.65981381    -0.75100
O1334       O  0.69049338  0.39930856  0.65156398    -0.75100
O1335       O  0.64319839  0.35659704  0.63473815    -0.75100
O1336       O  0.64799821  0.44303826  0.67407506    -0.75200
Ni1337     Ni  0.64708821  0.38789825  0.51083059     1.25400
Ni1338     Ni  0.64536427  0.40016622  0.65140939     1.25400
C1339       C  0.65005178  0.45231486  0.73192438     0.87100
C1340       C  0.64370020  0.33632571  0.67969327     0.87000
C1341       C  0.70648095  0.39322087  0.70257987     0.87100
C1342       C  0.58743382  0.39363977  0.71355587     0.87200
O1343       O  0.63222173  0.11196466  0.49956231    -0.75100
O1344       O  0.63691597  0.19915446  0.54376232    -0.75100
O1345       O  0.67883620  0.15502391  0.52073164    -0.75200
O1346       O  0.58996813  0.15625713  0.52083531    -0.75200
O1347       O  0.59022583  0.14355647  0.62422115    -0.75100
O1348       O  0.67951792  0.14293261  0.62440397    -0.75100
O1349       O  0.63677097  0.18614969  0.64707236    -0.75100
O1350       O  0.63281674  0.09996987  0.60334492    -0.75200
Ni1351     Ni  0.63443603  0.15608381  0.51749430     1.25400
Ni1352     Ni  0.63486358  0.14269207  0.62836556     1.25400
C1353       C  0.63154608  0.09158554  0.54477860     0.87100
C1354       C  0.63782786  0.20689249  0.60297919     0.87000
C1355       C  0.69391161  0.14874169  0.57237503     0.87100
C1356       C  0.57535602  0.15012571  0.57229417     0.87200
O1357       O  0.90272132  0.44149010  0.64576812    -0.75100
O1358       O  0.90056094  0.35265016  0.67474617    -0.75100
O1359       O  0.85700232  0.39671032  0.65654415    -0.75200
O1360       O  0.94637986  0.39708074  0.66237784    -0.75200
O1361       O  0.94564787  0.40485336  0.51663231    -0.75100
O1362       O  0.85537692  0.40429770  0.51194885    -0.75100
O1363       O  0.89917174  0.36114292  0.52891514    -0.75100
O1364       O  0.90126850  0.44882926  0.50212366    -0.75200
Ni1365     Ni  0.90173337  0.39675490  0.65607645     1.25400
Ni1366     Ni  0.90043352  0.40512418  0.51856707     1.25400
C1367       C  0.90174671  0.45964602  0.69406804     0.87100
C1368       C  0.89826864  0.34269753  0.48132307     0.87000
C1369       C  0.84200912  0.39972390  0.70824974     0.87100
C1370       C  0.96142991  0.40098292  0.71541623     0.87200
O1371       O  0.88532931  0.11622137  0.64801139    -0.75100
O1372       O  0.88916400  0.20327311  0.60482797    -0.75100
O1373       O  0.84291343  0.15997267  0.62297709    -0.75200
O1374       O  0.93172046  0.15934839  0.63031929    -0.75200
O1375       O  0.93292079  0.14722143  0.52711005    -0.75100
O1376       O  0.84338847  0.14906342  0.51892197    -0.75100
O1377       O  0.89056724  0.19154088  0.50136586    -0.75100
O1378       O  0.88605781  0.10500870  0.54423292    -0.75200
Ni1379     Ni  0.88727493  0.16017723  0.63018926     1.25400
Ni1380     Ni  0.88820350  0.14781439  0.51917231     1.25400
C1381       C  0.88531270  0.09628573  0.60282331     0.87100
C1382       C  0.89021846  0.21171549  0.54598075     0.87000
C1383       C  0.82851812  0.15463734  0.56987608     0.87100
C1384       C  0.94701265  0.15272033  0.58057838     0.87200
O1385       O  0.62061193  0.64650465  0.69165747    -0.75100
O1386       O  0.70670042  0.64843951  0.49623611    -0.75100
O1387       O  0.66370988  0.60349391  0.46050322    -0.75200
O1388       O  0.66281657  0.69202519  0.47251189    -0.75200
O1389       O  0.64753568  0.68845215  0.57360187    -0.75100
O1390       O  0.65064073  0.59886870  0.56238653    -0.75100
O1391       O  0.69157515  0.64574713  0.59743662    -0.75100
O1392       O  0.60624488  0.64117634  0.54111457    -0.75200
Ni1393     Ni  0.66403678  0.64781956  0.46368505     1.25400
Ni1394     Ni  0.64847794  0.64343212  0.57226812     1.25400
C1395       C  0.59925758  0.64266890  0.48149560     0.87100
C1396       C  0.71323285  0.64741903  0.55644890     0.87000
C1397       C  0.65757821  0.58640030  0.50904759     0.87100
C1398       C  0.65464067  0.70490141  0.52417495     0.87200
O1399       O  0.93914890  0.65376263  0.74417891    -0.75100
O1400       O  0.85096188  0.65356615  0.70466162    -0.75100
O1401       O  0.89344566  0.60906728  0.72636822    -0.75200
O1402       O  0.89621228  0.69795063  0.72376294    -0.75200
O1403       O  0.90502979  0.69772277  0.61909432    -0.75100
O1404       O  0.90450062  0.60843305  0.62287959    -0.75100
O1405       O  0.86152766  0.65206701  0.60096645    -0.75100
O1406       O  0.94881097  0.65446897  0.63997588    -0.75200
Ni1407     Ni  0.89464798  0.65357239  0.72853511     1.25400
Ni1408     Ni  0.90541622  0.65313442  0.61709322     1.25400
C1409       C  0.95851136  0.65473093  0.69819923     0.87100
C1410       C  0.84184406  0.65287395  0.64593247     0.87000
C1411       C  0.89804155  0.59400640  0.67509263     0.87100
C1412       C  0.90006932  0.71240457  0.67076809     0.87200
O1413       O  0.60610857  0.89624392  0.58714037    -0.75100
O1414       O  0.69264297  0.90374315  0.54217090    -0.75100
O1415       O  0.64670333  0.94424013  0.56436630    -0.75200
O1416       O  0.65205349  0.85525284  0.56495642    -0.75200
O1417       O  0.63735317  0.85476000  0.71258146    -0.75100
O1418       O  0.63471629  0.94437287  0.70928331    -0.75100
O1419       O  0.67937082  0.90197809  0.68855891    -0.75100
O1420       O  0.59266245  0.89572942  0.48370938    -0.75200
Ni1421     Ni  0.64989265  0.89987519  0.56826449     1.25400
Ni1422     Ni  0.63558077  0.89949574  0.70731322     1.25400
C1423       C  0.58507827  0.89494649  0.54265955     0.87100
C1424       C  0.70019466  0.90418751  0.48319075     0.87000
C1425       C  0.63935266  0.95861318  0.51261566     0.87100
C1426       C  0.64545964  0.83981410  0.51391849     0.87200
O1427       O  0.93177584  0.90325013  0.59479304    -0.75100
O1428       O  0.84283179  0.90250789  0.61921976    -0.75100
O1429       O  0.88782584  0.94733510  0.59859461    -0.75200
O1430       O  0.88718891  0.85890700  0.61397229    -0.75200
O1431       O  0.89585151  0.86270240  0.71900410    -0.75100
O1432       O  0.89492782  0.95183979  0.70403521    -0.75100
O1433       O  0.85125463  0.90621478  0.72436384    -0.75100
O1434       O  0.93945676  0.90820496  0.69988865    -0.75200
Ni1435     Ni  0.88704228  0.90291918  0.60290625     1.25400
Ni1436     Ni  0.89561168  0.90742191  0.71557430     1.25400
C1437       C  0.95026389  0.90544632  0.64372975     0.87100
C1438       C  0.83242740  0.90405746  0.67615348     0.87000
C1439       C  0.89163794  0.96417654  0.64845688     0.87100
C1440       C  0.89241560  0.84617548  0.66843350     0.87200
C1441       C  0.73390561  0.90593039  0.71607615    -0.06800
C1442       C  0.74433363  0.88664066  0.66743569    -0.17900
C1443       C  0.77616321  0.88527271  0.65333781     0.10400
C1444       C  0.79832296  0.90414890  0.68756975    -0.06700
C1445       C  0.78776731  0.92378681  0.73537046    -0.17900
C1446       C  0.75602528  0.92481456  0.50080187     0.10500
S1447       S  0.78702109  0.85761073  0.59407576    -0.32900
S1448       S  0.74584566  0.95116050  0.56321817    -0.32900
H1449       H  0.71702168  0.95927723  0.53578119     0.28500
H1450       H  0.81415463  0.84832463  0.62704599     0.28500
H1451       H  0.72768517  0.87157368  0.64181733     0.19100
H1452       H  0.80447065  0.93769348  0.51368152     0.19100
C1453       C  0.89813500  0.74649283  0.66952038    -0.06800
C1454       C  0.91533189  0.76399310  0.71507956    -0.17900
C1455       C  0.91433682  0.79648200  0.71567884     0.10400
C1456       C  0.89458353  0.81190261  0.67148739    -0.06700
C1457       C  0.87700948  0.79414372  0.62660500    -0.17900
C1458       C  0.87861074  0.76168942  0.62508176     0.10500
S1459       S  0.94046543  0.81670495  0.77085588    -0.32900
S1460       S  0.85394705  0.73983599  0.56930569    -0.32900
H1461       H  0.84464259  0.76534524  0.53175114     0.28500
H1462       H  0.95052782  0.83898169  0.72545770     0.28500
H1463       H  0.93038493  0.75229302  0.74923695     0.19100
H1464       H  0.86164005  0.80574187  0.59300836     0.19100
C1465       C  0.65232820  0.73921131  0.52446267    -0.06800
C1466       C  0.63209238  0.75261145  0.47949662    -0.17900
C1467       C  0.62893844  0.78546296  0.72547506     0.10400
C1468       C  0.64741676  0.80503284  0.51524170    -0.06700
C1469       C  0.66759053  0.79132210  0.56081034    -0.17900
C1470       C  0.67036694  0.75888168  0.56550696     0.10500
S1471       S  0.59991134  0.79849893  0.66902326    -0.32900
S1472       S  0.69827790  0.74412895  0.62270198    -0.32900
H1473       H  0.70724510  0.71949300  0.58412479     0.28500
H1474       H  0.62107956  0.81666391  0.63397062     0.28500
H1475       H  0.61759599  0.73807421  0.69973252     0.19100
H1476       H  0.68173058  0.80601992  0.59265367     0.19100
C1477       C  0.80833491  0.65135398  0.62801943    -0.06800
C1478       C  0.79904500  0.63003912  0.58051216    -0.17900
C1479       C  0.76846355  0.62822848  0.55669554     0.10400
C1480       C  0.74607874  0.64833619  0.58002987    -0.06700
C1481       C  0.75517795  0.66953475  0.62830736    -0.17900
C1482       C  0.78605542  0.67155531  0.65199840     0.10500
S1483       S  0.75934976  0.59848999  0.49930946    -0.32900
S1484       S  0.79612392  0.70271530  0.70638810    -0.32900
H1485       H  0.81100621  0.68392934  0.75182967     0.28500
H1486       H  0.73188257  0.58881734  0.53041254     0.28500
H1487       H  0.81590194  0.61451521  0.56167027     0.19100
H1488       H  0.73827037  0.68508156  0.64692864     0.19100
C1489       C  0.88631233  0.06266060  0.61740419    -0.06800
C1490       C  0.90676142  0.04518878  0.58200342    -0.19500
C1491       C  0.91006268  0.01349584  0.59358778     0.10400
C1492       C  0.89207952  0.99831390  0.64095212    -0.06700
C1493       C  0.87197474  0.01577530  0.67748981    -0.17900
C1494       C  0.86844597  0.04764396  0.66539458     0.10500
S1495       S  0.93855846  0.99424397  0.54753099    -0.32900
S1496       S  0.83863624  0.06688782  0.70794746    -0.32900
H1497       H  0.83011104  0.08575056  0.65584116     0.28500
H1498       H  0.94603923  0.97190019  0.59418106     0.28500
H1499       H  0.92083021  0.05648311  0.54556169     0.19100
H1500       H  0.85768639  0.00419045  0.71319117     0.19100
C1501       C  0.90013209  0.49383895  0.68535922    -0.06800
C1502       C  0.87935311  0.50985970  0.72310270    -0.17900
C1503       C  0.87697554  0.54220757  0.71849385     0.10400
C1504       C  0.89657622  0.55948228  0.67661764    -0.06700
C1505       C  0.91661539  0.54336406  0.63746985    -0.17900
C1506       C  0.91879726  0.51099512  0.64191447     0.10500
S1507       S  0.84741394  0.55962633  0.76513344    -0.32900
S1508       S  0.94773517  0.49354356  0.59472070    -0.32900
H1509       H  0.95719109  0.47274361  0.64309132     0.28500
H1510       H  0.83885350  0.58115898  0.71735113     0.28500
H1511       H  0.86442366  0.49697496  0.75585199     0.19100
H1512       H  0.93179599  0.55620033  0.60514419     0.19100
C1513       C  0.89620342  0.30892159  0.49484071    -0.06800
C1514       C  0.87612677  0.29857207  0.54328664    -0.17900
C1515       C  0.87324012  0.26711962  0.56026910     0.10400
C1516       C  0.89123425  0.24515811  0.52877516    -0.06700
C1517       C  0.91116772  0.25545385  0.47985940    -0.17900
C1518       C  0.91538751  0.28633660  0.71368092     0.10500
S1519       S  0.84550951  0.25681756  0.62121606    -0.32900
S1520       S  0.94353064  0.29695843  0.65387845    -0.32900
H1521       H  0.95425195  0.32443743  0.68438922     0.28500
H1522       H  0.83583628  0.22805879  0.59492850     0.28500
H1523       H  0.86219717  0.31518601  0.56779026     0.19100
H1524       H  0.92559374  0.23794889  0.70553111     0.19100
C1525       C  0.62993131  0.05777097  0.53034417    -0.06800
C1526       C  0.64824070  0.04620524  0.48147370    -0.17900
C1527       C  0.65162522  0.01402247  0.47354083     0.10400
C1528       C  0.63595586  0.99276993  0.51485250    -0.06700
C1529       C  0.61658242  0.00437654  0.56165188    -0.17900
C1530       C  0.61294202  0.03635948  0.56904964     0.10500
S1531       S  0.68278325  0.00345514  0.66720905    -0.32900
S1532       S  0.58551096  0.04824708  0.62763100    -0.32900
H1533       H  0.57581622  0.07456242  0.59307251     0.28500
H1534       H  0.68652338  0.97275354  0.68821484     0.28500
H1535       H  0.66136247  0.06233801  0.45146057     0.19100
H1536       H  0.60395005  0.98828198  0.59266213     0.19100
C1537       C  0.79420680  0.15383884  0.56885645    -0.06800
C1538       C  0.77905358  0.13522717  0.61478424    -0.17900
C1539       C  0.74658250  0.13194145  0.61552605     0.10400
C1540       C  0.72841433  0.14910649  0.57143407    -0.06700
C1541       C  0.74366153  0.16802111  0.52573039    -0.17900
C1542       C  0.77623830  0.17062429  0.52393869     0.10500
S1543       S  0.73019795  0.10400811  0.67127115    -0.32900
S1544       S  0.79291612  0.19693901  0.46526070    -0.32900
H1545       H  0.82129934  0.20356083  0.49760338     0.28500
H1546       H  0.70799047  0.09150820  0.62719523     0.28500
H1547       H  0.79266462  0.12247955  0.64966598     0.19100
H1548       H  0.73010622  0.18145901  0.49173028     0.19100
C1549       C  0.65289849  0.48642896  0.74296408    -0.06800
C1550       C  0.67179683  0.50407310  0.70155148    -0.17900
C1551       C  0.67490790  0.53650214  0.70581537     0.10400
C1552       C  0.65729556  0.55182633  0.50288325    -0.06700
C1553       C  0.63802760  0.53403960  0.54393590    -0.17900
C1554       C  0.63426455  0.50166203  0.53782704     0.10500
S1555       S  0.69926896  0.55472265  0.64593980    -0.32900
S1556       S  0.60544671  0.48243116  0.58649214    -0.32900
H1557       H  0.59519182  0.46112744  0.53924943     0.28500
H1558       H  0.70950622  0.58062014  0.68043670     0.28500
H1559       H  0.68422636  0.49236626  0.66459719     0.19100
H1560       H  0.62455155  0.54560214  0.57943231     0.19100
C1561       C  0.80740420  0.39851886  0.70574807    -0.06800
C1562       C  0.79151684  0.37857472  0.74823545    -0.17900
C1563       C  0.75890534  0.37494313  0.74569764     0.10400
C1564       C  0.74121007  0.39271504  0.70134560    -0.06700
C1565       C  0.75723955  0.41221943  0.65798651    -0.17900
C1566       C  0.78993002  0.41549546  0.66003294     0.10500
S1567       S  0.74166772  0.34587377  0.79798093    -0.32900
S1568       S  0.80773899  0.44324233  0.60573313    -0.32900
H1569       H  0.83187345  0.45313980  0.64817807     0.28500
H1570       H  0.71906451  0.33522669  0.75275120     0.28500
H1571       H  0.80472399  0.36488798  0.78242376     0.19100
H1572       H  0.74417930  0.42603244  0.62381830     0.19100
C1573       C  0.64198857  0.30299660  0.66193725    -0.06800
C1574       C  0.66071452  0.29322696  0.61202208    -0.17900
C1575       C  0.66025361  0.26211497  0.59233547     0.10400
C1576       C  0.63991403  0.24009325  0.62183772    -0.06700
C1577       C  0.62121065  0.24986228  0.67183560    -0.17900
C1578       C  0.62170420  0.28099047  0.69155259     0.10500
S1579       S  0.68725594  0.25165733  0.28112239    -0.32900
S1580       S  0.59461738  0.29142375  0.75190272    -0.32900
H1581       H  0.58771597  0.32041453  0.72437990     0.28500
H1582       H  0.69431479  0.22277661  0.55890520     0.28500
H1583       H  0.67600310  0.30974545  0.33792642     0.19100
H1584       H  0.60538757  0.23324029  0.69460661     0.19100
C1585       C  0.04524172  0.14825461  0.62127656    -0.06800
C1586       C  0.03125468  0.12692971  0.57801277    -0.17900
C1587       C  0.99951529  0.12856491  0.56047011     0.10400
C1588       C  0.98139901  0.15210340  0.58672529    -0.06700
C1589       C  0.99600976  0.17424365  0.62705572    -0.17900
C1590       C  0.02749228  0.17270698  0.64397245     0.10500
S1591       S  0.98290200  0.09817363  0.51038965    -0.32900
S1592       S  0.04364696  0.20304311  0.69412320    -0.32900
H1593       H  0.07264645  0.20459718  0.66394632     0.28500
H1594       H  0.97115180  0.11891330  0.46435339     0.28500
H1595       H  0.04478950  0.10827825  0.55956882     0.19100
H1596       H  0.98257106  0.19273454  0.64664024     0.19100
C1597       C  0.54082073  0.14914838  0.57130414    -0.06800
C1598       C  0.52554378  0.12873257  0.61385798    -0.17900
C1599       C  0.49320753  0.12388939  0.61090243     0.10400
C1600       C  0.47517823  0.14020160  0.56539941    -0.06700
C1601       C  0.49032741  0.16107172  0.52344482    -0.17900
C1602       C  0.52273669  0.16614414  0.52655524     0.10500
S1603       S  0.47690055  0.09485153  0.66341881    -0.32900
S1604       S  0.53876091  0.19530835  0.72288483    -0.32900
H1605       H  0.56080385  0.20749909  0.52038619     0.28500
H1606       H  0.45485421  0.08311088  0.61823049     0.28500
H1607       H  0.53899497  0.11536581  0.64816952     0.19100
H1608       H  0.47630968  0.17399208  0.73783274     0.19100
C1609       C  0.28688375  0.13147680  0.78109195    -0.06800
C1610       C  0.27419066  0.11013917  0.73633775    -0.17900
C1611       C  0.24244641  0.10951878  0.71952705     0.10400
C1612       C  0.22259410  0.13097496  0.74739352    -0.06700
C1613       C  0.23492791  0.15162538  0.79377351    -0.17900
C1614       C  0.26677782  0.15219683  0.81073672     0.10500
S1615       S  0.22878226  0.08076464  0.66217381    -0.32900
S1616       S  0.28083146  0.18252568  0.86373173    -0.32900
H1617       H  0.29547201  0.16218809  0.90663087     0.28500
H1618       H  0.19929114  0.07584342  0.68925596     0.28500
H1619       H  0.29022283  0.09464339  0.46116430     0.19100
H1620       H  0.21993793  0.16844527  0.81474326     0.19100
C1621       C  0.06163285  0.39154891  0.70926052    -0.06800
C1622       C  0.04913880  0.41113348  0.75466758    -0.17900
C1623       C  0.01682520  0.41491982  0.75784555     0.10400
C1624       C  0.99609101  0.39830702  0.71582440    -0.06700
C1625       C  0.00880535  0.37783933  0.67202614    -0.17900
C1626       C  0.04100958  0.37400888  0.66882231     0.10500
S1627       S  0.00406703  0.44375783  0.81164966    -0.32900
S1628       S  0.05420760  0.34564229  0.61318119    -0.32900
H1629       H  0.07968856  0.33637097  0.65146949     0.28500
H1630       H  0.98454901  0.45690765  0.76452947     0.28500
H1631       H  0.06472729  0.42495101  0.78544004     0.19100
H1632       H  0.99349452  0.36440361  0.64005049     0.19100
C1633       C  0.14335978  0.23340663  0.68854635    -0.06800
C1634       C  0.16399608  0.24790945  0.64494917    -0.17900
C1635       C  0.16738467  0.28044636  0.64000393     0.10400
C1636       C  0.14951427  0.29945363  0.67866919    -0.06700
C1637       C  0.12929809  0.28531891  0.72266827    -0.17900
C1638       C  0.12604465  0.25290456  0.72845166     0.10500
S1639       S  0.19592084  0.29631772  0.58582579    -0.32900
S1640       S  0.09837378  0.23970097  0.53615893    -0.32900
H1641       H  0.11891385  0.22017550  0.56762689     0.28500
H1642       H  0.20594468  0.32062315  0.62669208     0.28500
H1643       H  0.17783651  0.23377609  0.61444454     0.19100
H1644       H  0.11568620  0.29982594  0.75296241     0.19100
C1645       C  0.48683020  0.38475337  0.49237557    -0.06800
C1646       C  0.49790178  0.40503970  0.44452565    -0.17900
C1647       C  0.53106486  0.40717163  0.68183869     0.10400
C1648       C  0.55287548  0.39087655  0.72010181    -0.06700
C1649       C  0.54157455  0.37123926  0.76903732    -0.17900
C1650       C  0.50985844  0.36825890  0.78179631     0.10500
S1651       S  0.54177468  0.43737652  0.37546835    -0.32900
S1652       S  0.49841892  0.34043256  0.84225691    -0.32900
H1653       H  0.46840053  0.32845852  0.54977762     0.28500
H1654       H  0.51358861  0.43755232  0.59112234     0.28500
H1655       H  0.48177159  0.41994118  0.41933326     0.19100
H1656       H  0.55762467  0.35773554  0.79778932     0.19100
C1657       C  0.38459806  0.22765540  0.54843823    -0.06800
C1658       C  0.40563535  0.24188221  0.59223593    -0.17900
C1659       C  0.40942812  0.27425201  0.59567028     0.10400
C1660       C  0.39160802  0.29335355  0.55420955    -0.06700
C1661       C  0.37155482  0.27970533  0.75918918    -0.17900
C1662       C  0.36734727  0.24733113  0.75584401     0.10500
S1663       S  0.43927405  0.28883778  0.65028426    -0.32900
S1664       S  0.33872788  0.23201165  0.69910668    -0.32900
H1665       H  0.32828175  0.20713014  0.73805239     0.28500
H1666       H  0.41908332  0.30726842  0.68354850     0.28500
H1667       H  0.41967240  0.22752780  0.62369001     0.19100
H1668       H  0.35787083  0.29395445  0.72693202     0.19100
C1669       C  0.30833406  0.38772282  0.60298277    -0.06800
C1670       C  0.30055350  0.40711721  0.65358613    -0.17900
C1671       C  0.26956411  0.40950510  0.67239999     0.10400
C1672       C  0.24569803  0.39177677  0.64077808    -0.06700
C1673       C  0.25358873  0.37229376  0.59045527    -0.17900
C1674       C  0.28451017  0.36953269  0.57222572     0.10500
S1675       S  0.26175498  0.43733235  0.73323915    -0.32900
S1676       S  0.29201340  0.34138331  0.51138849    -0.32900
H1677       H  0.32011194  0.33159031  0.53975715     0.28500
H1678       H  0.23465770  0.44784603  0.70203968     0.28500
H1679       H  0.31857756  0.42145447  0.67703569     0.19100
H1680       H  0.23551595  0.35866372  0.56554565     0.19100
C1681       C  0.13424036  0.97990376  0.67346104    -0.06800
C1682       C  0.11368227  0.99566874  0.63210752    -0.17900
C1683       C  0.10980594  0.02783686  0.63660041     0.10400
C1684       C  0.12694893  0.04513546  0.68323970    -0.06700
C1685       C  0.14632371  0.02935976  0.72661437    -0.17900
C1686       C  0.15064468  0.99724926  0.72141313     0.10500
S1687       S  0.08222098  0.04538906  0.58223720    -0.32900
S1688       S  0.18045958  0.98094149  0.77151649    -0.32900
H1689       H  0.19130112  0.96274935  0.72188663     0.28500
H1690       H  0.07424053  0.06925852  0.62383921     0.28500
H1691       H  0.10060901  0.98281036  0.59545531     0.19100
H1692       H  0.15987931  0.04252575  0.76210983     0.19100
C1693       C  0.04875590  0.89060106  0.63076235    -0.06800
C1694       C  0.03787603  0.91170456  0.67514976    -0.17900
C1695       C  0.00631881  0.91842681  0.67783106     0.10400
C1696       C  0.98448085  0.90316015  0.63616662    -0.06700
C1697       C  0.99556833  0.88267815  0.59032464    -0.17900
C1698       C  0.02734825  0.87596411  0.58758225     0.10500
S1699       S  0.99599701  0.94781155  0.73365930    -0.32900
S1700       S  0.03867982  0.84721678  0.53094627    -0.32900
H1701       H  0.06441448  0.83657885  0.56667698     0.28500
H1702       H  0.97249364  0.96018401  0.69413557     0.28500
H1703       H  0.05432726  0.92365042  0.70738498     0.19100
H1704       H  0.97921842  0.87090320  0.55795979     0.19100
C1705       C  0.15262783  0.55303785  0.70233791    -0.06800
C1706       C  0.17221541  0.53609810  0.74330656    -0.17900
C1707       C  0.17474642  0.50376832  0.73788060     0.10400
C1708       C  0.15744905  0.48750024  0.68930699    -0.06700
C1709       C  0.13863835  0.50462084  0.64696042    -0.17900
C1710       C  0.13555205  0.53683417  0.65385019     0.10500
S1711       S  0.19940779  0.48370936  0.54005806    -0.32900
S1712       S  0.10694437  0.55500638  0.60380803    -0.32900
H1713       H  0.09678347  0.57426688  0.65268392     0.28500
H1714       H  0.20667847  0.50904940  0.58047312     0.28500
H1715       H  0.18505131  0.54795461  0.52698229     0.19100
H1716       H  0.12485049  0.49257456  0.61024437     0.19100
C1717       C  0.05792506  0.65029058  0.73243848    -0.06800
C1718       C  0.04593323  0.67003141  0.68447128    -0.17900
C1719       C  0.01373379  0.67297153  0.67411291     0.10400
C1720       C  0.99259697  0.65541826  0.71192149    -0.06700
C1721       C  0.00429744  0.63697070  0.76189500    -0.17900
C1722       C  0.03657533  0.63438776  0.77299116     0.10500
S1723       S  0.00003987  0.70039035  0.61458762    -0.32900
S1724       S  0.04952563  0.60945088  0.83697922    -0.32900
H1725       H  0.02026932  0.60353593  0.86457177     0.28500
H1726       H  0.02919336  0.70774929  0.58772579     0.28500
H1727       H  0.06195129  0.68332934  0.65473370     0.19100
H1728       H  0.98798374  0.62375876  0.79113554     0.19100
C1729       C  0.15263175  0.73578437  0.53994979    -0.06800
C1730       C  0.13032245  0.74276783  0.58570294    -0.17900
C1731       C  0.12767796  0.77296141  0.60975504     0.10400
C1732       C  0.14782558  0.79729589  0.58803134    -0.06700
C1733       C  0.16991024  0.79039775  0.79146619    -0.17900
C1734       C  0.17248256  0.76011361  0.76758238     0.10500
S1735       S  0.09622549  0.77939938  0.66323293    -0.32900
S1736       S  0.20460670  0.75295910  0.71626805    -0.32900
H1737       H  0.18592182  0.73930531  0.66760386     0.28500
H1738       H  0.11538154  0.79307960  0.71100854     0.28500
H1739       H  0.11452236  0.72445050  0.60268048     0.19100
H1740       H  0.18623791  0.80854025  0.77582588     0.19100
C1741       C  0.38308105  0.97556512  0.58074160    -0.06800
C1742       C  0.39960557  0.98975499  0.53083794    -0.17900
C1743       C  0.39930313  0.02193945  0.52107339     0.10400
C1744       C  0.38146481  0.04056188  0.56099662    -0.06700
C1745       C  0.36379378  0.02596737  0.60921275    -0.17900
C1746       C  0.36410305  0.99375897  0.61893367     0.10500
S1747       S  0.42454464  0.03780799  0.46104155    -0.32900
S1748       S  0.33517013  0.97674637  0.92239600    -0.32900
H1749       H  0.33195624  0.94949984  0.64507452     0.28500
H1750       H  0.43672842  0.06147063  0.50134777     0.28500
H1751       H  0.41418869  0.97587265  0.50129602     0.19100
H1752       H  0.34575471  0.03968806  0.88405471     0.19100
C1753       C  0.48691050  0.89254594  0.58693757    -0.06800
C1754       C  0.49831896  0.87311596  0.53977198    -0.17900
C1755       C  0.53003832  0.87286692  0.52607321     0.10400
C1756       C  0.55152395  0.89278541  0.55927558    -0.06700
C1757       C  0.54032352  0.91216634  0.60695821    -0.17900
C1758       C  0.50830865  0.91261708  0.62045815     0.10500
S1759       S  0.54173929  0.84531450  0.46785484    -0.32900
S1760       S  0.49618083  0.94067505  0.67767388    -0.32900
H1761       H  0.46888257  0.94846369  0.64342761     0.28500
H1762       H  0.56857478  0.83729805  0.50332537     0.28500
H1763       H  0.48240700  0.85735695  0.51395473     0.19100
H1764       H  0.55644476  0.92793412  0.63217549     0.19100
C1765       C  0.30079508  0.87895164  0.63911626    -0.06800
C1766       C  0.28832256  0.89778449  0.68619514    -0.17900
C1767       C  0.25602983  0.90204788  0.68924478     0.10400
C1768       C  0.23571841  0.88768775  0.64344966    -0.06700
C1769       C  0.24802707  0.86801066  0.59819963    -0.17900
C1770       C  0.27993067  0.86283908  0.59671800     0.10500
S1771       S  0.24163324  0.92747104  0.74893615    -0.32900
S1772       S  0.29187515  0.83361594  0.54264038    -0.32900
H1773       H  0.31367260  0.82152843  0.58667639     0.28500
H1774       H  0.26968425  0.93130011  0.78460382     0.28500
H1775       H  0.30397901  0.91003570  0.71934690     0.19100
H1776       H  0.23244725  0.85574024  0.56475454     0.19100
C1777       C  0.40092936  0.54669355  0.76715266    -0.06800
C1778       C  0.42041954  0.53353630  0.55633249    -0.17900
C1779       C  0.42001995  0.50143937  0.56931183     0.10400
C1780       C  0.39946680  0.48119620  0.53408121    -0.06700
C1781       C  0.37913382  0.49417217  0.48820016    -0.17900
C1782       C  0.37934332  0.52614346  0.47572506     0.10500
S1783       S  0.44827712  0.48774605  0.62691063    -0.32900
S1784       S  0.35091036  0.53991009  0.41821734    -0.32900
H1785       H  0.34336294  0.56893739  0.72158997     0.28500
H1786       H  0.42549200  0.47444926  0.66677131     0.28500
H1787       H  0.44008848  0.54874355  0.83355433     0.19100
H1788       H  0.36277773  0.47923537  0.46149522     0.19100
C1789       C  0.50046090  0.63898080  0.70706263    -0.06800
C1790       C  0.51689475  0.61125452  0.70577310    -0.17900
C1791       C  0.54970034  0.61175468  0.71029615     0.10400
C1792       C  0.56606421  0.64087053  0.46231741    -0.06700
C1793       C  0.54981364  0.66849443  0.46219801    -0.17900
C1794       C  0.51716215  0.66806489  0.45806877     0.10500
S1795       S  0.56887866  0.57500878  0.71195221    -0.32900
S1796       S  0.49751009  0.70432613  0.46044769    -0.32900
H1797       H  0.52422915  0.72417458  0.46385898     0.28500
H1798       H  0.59679809  0.58626028  0.68480560     0.28500
H1799       H  0.50410619  0.58910434  0.70361132     0.19100
H1800       H  0.56279022  0.69035824  0.46843850     0.19100
C1801       C  0.24618076  0.64050408  0.74113659    -0.06800
C1802       C  0.26494739  0.65822168  0.78376859    -0.17900
C1803       C  0.29763921  0.65892833  0.78012046     0.10400
C1804       C  0.31237370  0.64062183  0.73393674    -0.06700
C1805       C  0.29338467  0.62254840  0.69198312    -0.17900
C1806       C  0.26075649  0.62200548  0.69554652     0.10500
S1807       S  0.31872586  0.68553858  0.83274474    -0.32900
S1808       S  0.23909539  0.59594359  0.64262206    -0.32900
H1809       H  0.21602889  0.58790189  0.68700105     0.28500
H1810       H  0.33939438  0.69617861  0.78565427     0.28500
H1811       H  0.25400303  0.67270191  0.81847075     0.19100
H1812       H  0.30403700  0.60809836  0.65684914     0.19100
C1813       C  0.40691615  0.72862153  0.67390796    -0.06800
C1814       C  0.38688239  0.74626115  0.70991397    -0.17900
C1815       C  0.38328922  0.77785289  0.69768193     0.10400
C1816       C  0.40112425  0.79307652  0.65040324    -0.06700
C1817       C  0.42125680  0.77566789  0.61416928    -0.17900
C1818       C  0.42458325  0.74374692  0.62556179     0.10500
S1819       S  0.35416440  0.79696209  0.49202600    -0.32900
S1820       S  0.45350370  0.72541116  0.57925479    -0.32900
H1821       H  0.45416698  0.69646466  0.60998129     0.28500
H1822       H  0.34466885  0.81649458  0.69065339     0.28500
H1823       H  0.37412246  0.73569971  0.49833333     0.19100
H1824       H  0.43507518  0.78721306  0.57765003     0.19100
O1825       O  0.40853301  0.60035014  0.79416269    -0.75100
O1826       O  0.40951429  0.68695326  0.99731182    -0.75100
O1827       O  0.36497576  0.64362778  0.02630333    -0.75200
O1828       O  0.45364295  0.64404633  0.76456735    -0.75200
O1829       O  0.44956379  0.63145144  0.91057706    -0.75100
O1830       O  0.35981195  0.63295305  0.92268466    -0.75100
O1831       O  0.40581006  0.67543263  0.89385150    -0.75100
O1832       O  0.40314694  0.58875558  0.93817120    -0.75200
Ni1833     Ni  0.40922663  0.64411546  0.77489998     1.25400
Ni1834     Ni  0.40446588  0.63164782  0.91261450     1.25400
C1835       C  0.40488425  0.58020125  0.99686534     0.87100
C1836       C  0.40809794  0.69553400  0.93860462     0.87000
C1837       C  0.34759099  0.63893473  0.97659898     0.87100
C1838       C  0.46654900  0.63833336  0.96004850     0.87200
O1839       O  0.38551398  0.92379321  0.79713713    -0.75100
O1840       O  0.39518483  0.83694477  0.82990670    -0.75100
O1841       O  0.34630618  0.87546763  0.82558177    -0.75200
O1842       O  0.43425205  0.88533265  0.80126072    -0.75200
O1843       O  0.44192014  0.89464430  0.90502850    -0.75100
O1844       O  0.35324451  0.88555244  0.92925387    -0.75100
O1845       O  0.40148844  0.84638435  0.93402086    -0.75100
O1846       O  0.39271409  0.93352717  0.90108923    -0.75200
Ni1847     Ni  0.39009736  0.88002319  0.80986417     1.25400
Ni1848     Ni  0.39771133  0.89036278  0.92112118     1.25400
C1849       C  0.38704374  0.94284911  0.84387474     0.87100
C1850       C  0.39922761  0.82728526  0.88735010     0.87000
C1851       C  0.33514306  0.87929097  0.88113899     0.87100
C1852       C  0.45271092  0.89150017  0.84875776     0.87200
O1853       O  0.15031800  0.60727906  0.91589212    -0.75100
O1854       O  0.15618224  0.69490866  0.96136879    -0.75100
O1855       O  0.19784222  0.64907729  0.93871120    -0.75200
O1856       O  0.10890863  0.65329733  0.93570972    -0.75200
O1857       O  0.10663741  0.63968473  0.78901266    -0.75100
O1858       O  0.19690412  0.63924678  0.79419865    -0.75100
O1859       O  0.15273504  0.68247560  0.81330404    -0.75100
O1860       O  0.15090742  0.59611332  0.77224389    -0.75200
Ni1861     Ni  0.15335960  0.65163856  0.93423314     1.25400
Ni1862     Ni  0.15176872  0.63894432  0.79579969     1.25400
C1863       C  0.15070070  0.58693355  0.96129639     0.87100
C1864       C  0.15368370  0.70302350  0.76885582     0.87000
C1865       C  0.21239799  0.64240311  0.99074797     0.87100
C1866       C  0.09330827  0.64720282  0.98598393     0.87200
O1867       O  0.14033423  0.92501723  0.96053755    -0.75100
O1868       O  0.14245567  0.83803622  0.91396476    -0.75100
O1869       O  0.18622365  0.88313709  0.94359070    -0.75200
O1870       O  0.09698840  0.88018616  0.93276843    -0.75200
O1871       O  0.09826216  0.89312911  0.82935433    -0.75100
O1872       O  0.18768132  0.89563402  0.83999789    -0.75100
O1873       O  0.14399417  0.85161012  0.81108178    -0.75100
O1874       O  0.14220756  0.93738223  0.85727665    -0.75200
Ni1875     Ni  0.14145912  0.88102710  0.94143817     1.25400
Ni1876     Ni  0.14311303  0.89492363  0.83088478     1.25400
C1877       C  0.14058168  0.94560580  0.91575191     0.87100
C1878       C  0.14397124  0.83061634  0.85471594     0.87000
C1879       C  0.20159542  0.88918276  0.89303137     0.87100
C1880       C  0.08300442  0.88723086  0.88023061     0.87200
O1881       O  0.43359567  0.38688943  0.97207155    -0.75100
O1882       O  0.34801221  0.38741887  0.77416409    -0.75100
O1883       O  0.39178226  0.43177558  0.74543747    -0.75200
O1884       O  0.38897162  0.34301128  0.75081004    -0.75200
O1885       O  0.40440520  0.34370963  0.85286635    -0.75100
O1886       O  0.40791381  0.43326977  0.84720656    -0.75100
O1887       O  0.36374665  0.38906831  0.87629478    -0.75100
O1888       O  0.44872856  0.38779722  0.82452605    -0.75200
Ni1889     Ni  0.39004574  0.38735252  0.74450744     1.25400
Ni1890     Ni  0.40680477  0.38853189  0.85384937     1.25400
C1891       C  0.45515044  0.38702651  0.76510298     0.87100
C1892       C  0.34183861  0.38795820  0.83377787     0.87000
C1893       C  0.40014029  0.44729009  0.79527304     0.87100
C1894       C  0.39585358  0.32853235  0.80267234     0.87200
O1895       O  0.11473020  0.39147950  0.99402065    -0.75100
O1896       O  0.20332741  0.39240391  0.96294738    -0.75100
O1897       O  0.16040639  0.43635636  0.98227887    -0.75200
O1898       O  0.15770233  0.34756282  0.97745094    -0.75200
O1899       O  0.14878996  0.34853397  0.87208718    -0.75100
O1900       O  0.15007426  0.43870111  0.87780151    -0.75100
O1901       O  0.19289562  0.39438201  0.85820446    -0.75100
O1902       O  0.10556931  0.39235045  0.88880687    -0.75200
Ni1903     Ni  0.15942075  0.39192412  0.98287853     1.25400
Ni1904     Ni  0.14899216  0.39363013  0.87049592     1.25400
C1905       C  0.09558853  0.39118730  0.94590586     0.87100
C1906       C  0.21252788  0.39324877  0.90489749     0.87000
C1907       C  0.15584035  0.45239550  0.93145890     0.87100
C1908       C  0.15279631  0.33332683  0.92457611     0.87200
O1909       O  0.42382185  0.13630302  0.86139061    -0.75100
O1910       O  0.33409609  0.13493222  0.84547914    -0.75100
O1911       O  0.37795183  0.09110651  0.85745581    -0.75200
O1912       O  0.38012742  0.17979315  0.85107100    -0.75200
O1913       O  0.38334696  0.17875156  0.99359846    -0.75100
O1914       O  0.38397261  0.08921056  0.00073602    -0.75100
O1915       O  0.33921975  0.13204115  0.98822935    -0.75100
O1916       O  0.42797314  0.13623056  0.00446959    -0.75200
Ni1917     Ni  0.37883130  0.13554019  0.85760688     1.25400
Ni1918     Ni  0.38370751  0.13395361  0.99292277     1.25400
C1919       C  0.44011974  0.13723984  0.81063320     0.87100
C1920       C  0.32129612  0.13318864  0.78964040     0.87000
C1921       C  0.38044921  0.07551559  0.80611407     0.87100
C1922       C  0.38181397  0.19398629  0.79730016     0.87200
O1923       O  0.09973408  0.14160771  0.85681447    -0.75100
O1924       O  0.18464592  0.13418023  0.91442064    -0.75100
O1925       O  0.13724306  0.09350938  0.88489372    -0.75200
O1926       O  0.14749703  0.18270631  0.88728227    -0.75200
O1927       O  0.13111994  0.18328338  0.98715475    -0.75100
O1928       O  0.12388928  0.09384905  0.98731608    -0.75100
O1929       O  0.16995325  0.13621804  0.01582575    -0.75100
O1930       O  0.08475557  0.14105318  0.95818561    -0.75200
Ni1931     Ni  0.14278459  0.13801592  0.88225073     1.25400
Ni1932     Ni  0.12682328  0.13859489  0.99067509     1.25400
C1933       C  0.07825134  0.14276378  0.89819188     0.87100
C1934       C  0.19125558  0.13377811  0.97437900     0.87000
C1935       C  0.12960107  0.07899421  0.93623221     0.87100
C1936       C  0.14068367  0.19793049  0.93741710     0.87200
O1937       O  0.65054089  0.43259726  0.77839506    -0.75100
O1938       O  0.64626571  0.34526790  0.98860493    -0.75100
O1939       O  0.69323371  0.38898128  0.00363107    -0.75200
O1940       O  0.60420964  0.38851798  0.76357162    -0.75200
O1941       O  0.60008679  0.40025038  0.91091084    -0.75100
O1942       O  0.69016989  0.39986047  0.89955181    -0.75100
O1943       O  0.64275798  0.35694670  0.88475142    -0.75100
O1944       O  0.64797843  0.44340564  0.92327091    -0.75200
Ni1945     Ni  0.64851937  0.38813531  0.76271469     1.25400
Ni1946     Ni  0.64505864  0.40055751  0.90094658     1.25400
C1947       C  0.65051510  0.45272879  0.98100209     0.87100
C1948       C  0.64355277  0.33680627  0.92993077     0.87000
C1949       C  0.70650399  0.39411446  0.95025507     0.87100
C1950       C  0.58759622  0.39425949  0.96515975     0.87200
O1951       O  0.63278237  0.11291280  0.74934621    -0.75100
O1952       O  0.63632266  0.19985867  0.79501404    -0.75100
O1953       O  0.67878589  0.15633402  0.77172142    -0.75200
O1954       O  0.58978570  0.15663034  0.77091563    -0.75200
O1955       O  0.58986409  0.14365154  0.87411980    -0.75100
O1956       O  0.67933347  0.14369574  0.87511155    -0.75100
O1957       O  0.63609926  0.18651567  0.89815332    -0.75100
O1958       O  0.63298230  0.10046804  0.85293147    -0.75200
Ni1959     Ni  0.63434920  0.15693332  0.76805755     1.25400
Ni1960     Ni  0.63458381  0.14311006  0.87869940     1.25400
C1961       C  0.63224580  0.09235215  0.79418904     0.87100
C1962       C  0.63713289  0.20738964  0.85432342     0.87000
C1963       C  0.69381722  0.14979347  0.82327250     0.87100
C1964       C  0.57503989  0.15029657  0.82214700     0.87200
O1965       O  0.90359111  0.44212632  0.89458018    -0.75100
O1966       O  0.89902358  0.35310922  0.92305446    -0.75100
O1967       O  0.85676523  0.39852207  0.90482486    -0.75200
O1968       O  0.94598894  0.39639673  0.91028641    -0.75200
O1969       O  0.94674420  0.40576577  0.76712957    -0.75100
O1970       O  0.85656183  0.40322743  0.76209344    -0.75100
O1971       O  0.90119174  0.36095089  0.77980180    -0.75100
O1972       O  0.90133281  0.44862733  0.75098239    -0.75200
Ni1973     Ni  0.90139861  0.39730484  0.90439217     1.25400
Ni1974     Ni  0.90153830  0.40499372  0.76868037     1.25400
C1975       C  0.90339853  0.46019878  0.94318115     0.87100
C1976       C  0.90039785  0.34230132  0.73246672     0.87000
C1977       C  0.84190407  0.40194400  0.95651048     0.87100
C1978       C  0.96120578  0.39973799  0.96324396     0.87200
O1979       O  0.88493115  0.11579082  0.89900629    -0.75100
O1980       O  0.88919250  0.20280797  0.85538656    -0.75100
O1981       O  0.84274786  0.15963051  0.87276494    -0.75200
O1982       O  0.93139422  0.15868962  0.88264449    -0.75200
O1983       O  0.93349430  0.14665310  0.77961373    -0.75100
O1984       O  0.84376435  0.14849356  0.76887850    -0.75100
O1985       O  0.89118358  0.19094130  0.75208645    -0.75100
O1986       O  0.88649605  0.10451001  0.79535506    -0.75200
Ni1987     Ni  0.88702641  0.15971924  0.88105158     1.25400
Ni1988     Ni  0.88871730  0.14725616  0.77021587     1.25400
C1989       C  0.88540753  0.09583611  0.85391897     0.87100
C1990       C  0.89062396  0.21118676  0.79651931     0.87000
C1991       C  0.82860535  0.15419938  0.81947102     0.87100
C1992       C  0.94717685  0.15198698  0.83364013     0.87200
O1993       O  0.62117679  0.64679461  0.93978267    -0.75100
O1994       O  0.70736182  0.64956231  0.74590360    -0.75100
O1995       O  0.66467151  0.60411332  0.71153678    -0.75200
O1996       O  0.66279271  0.69265743  0.72317879    -0.75200
O1997       O  0.64827890  0.68906372  0.82474148    -0.75100
O1998       O  0.65227074  0.59945869  0.81377434    -0.75100
O1999       O  0.69292857  0.64680311  0.84752167    -0.75100
O2000       O  0.60721468  0.64127110  0.79372987    -0.75200
Ni2001     Ni  0.66445575  0.64844622  0.71455795     1.25400
Ni2002     Ni  0.64968093  0.64402517  0.82358385     1.25400
C2003       C  0.59977154  0.64261827  0.73430982     0.87100
C2004       C  0.71431078  0.64858524  0.80595000     0.87000
C2005       C  0.65899543  0.58699599  0.76028015     0.87100
C2006       C  0.65487352  0.70553402  0.77502909     0.87200
O2007       O  0.94028784  0.65483181  0.99365841    -0.75100
O2008       O  0.85221619  0.65404806  0.95330393    -0.75100
O2009       O  0.89504651  0.60992903  0.97589515    -0.75200
O2010       O  0.89716253  0.69855345  0.97253482    -0.75200
O2011       O  0.90621152  0.69828096  0.86791422    -0.75100
O2012       O  0.90613528  0.60904592  0.87250524    -0.75100
O2013       O  0.86297853  0.65241873  0.84972016    -0.75100
O2014       O  0.95022222  0.65543618  0.88954890    -0.75200
Ni2015     Ni  0.89586727  0.65432684  0.97760824     1.25400
Ni2016     Ni  0.90685457  0.65374178  0.86625270     1.25400
C2017       C  0.95972246  0.65583444  0.94786568     0.87100
C2018       C  0.84319844  0.65329305  0.89450353     0.87000
C2019       C  0.89972972  0.59472949  0.92489726     0.87100
C2020       C  0.90105791  0.71291913  0.91952533     0.87200
O2021       O  0.60626106  0.89758810  0.83689766    -0.75100
O2022       O  0.69280469  0.90412481  0.79188115    -0.75100
O2023       O  0.64734482  0.94520579  0.81320746    -0.75200
O2024       O  0.65188763  0.85608029  0.81505081    -0.75200
O2025       O  0.63810105  0.85489752  0.96153919    -0.75100
O2026       O  0.63442822  0.94439820  0.96068833    -0.75100
O2027       O  0.67959576  0.90274082  0.93883761    -0.75100
O2028       O  0.59279157  0.89700993  0.73351272    -0.75200
Ni2029     Ni  0.65006860  0.90077121  0.81786913     1.25400
Ni2030     Ni  0.63582967  0.89959274  0.95745412     1.25400
C2031       C  0.58519309  0.89632888  0.79249078     0.87100
C2032       C  0.70039304  0.90410976  0.73296418     0.87000
C2033       C  0.64028957  0.95946659  0.76112937     0.87100
C2034       C  0.64518237  0.84050672  0.76420896     0.87200
O2035       O  0.93189289  0.90290412  0.84560166    -0.75100
O2036       O  0.84298519  0.90271238  0.87011744    -0.75100
O2037       O  0.88823519  0.94719633  0.84956693    -0.75200
O2038       O  0.88699290  0.85887760  0.86467635    -0.75200
O2039       O  0.89569372  0.86254931  0.96975296    -0.75100
O2040       O  0.89534525  0.95157051  0.95505572    -0.75100
O2041       O  0.85143190  0.90624165  0.97527901    -0.75100
O2042       O  0.93958503  0.90771466  0.95072576    -0.75200
Ni2043     Ni  0.88716281  0.90283698  0.85374354     1.25400
Ni2044     Ni  0.89575868  0.90719449  0.96646104     1.25400
C2045       C  0.95038760  0.90504224  0.89453969     0.87100
C2046       C  0.83259839  0.90424225  0.92706686     0.87000
C2047       C  0.89211217  0.96394412  0.89952085     0.87100
C2048       C  0.89216348  0.84612496  0.91910408     0.87200
C2049       C  0.73409383  0.90661818  0.96655636    -0.06800
C2050       C  0.74439062  0.88798817  0.91672811    -0.17900
C2051       C  0.77621304  0.88636625  0.90294348     0.10400
C2052       C  0.79851012  0.90447389  0.93848863    -0.06700
C2053       C  0.78809860  0.92347277  0.98752798    -0.17900
C2054       C  0.75605306  0.92517518  0.74946596     0.10500
S2055       S  0.78686915  0.85908187  0.84277746    -0.32900
S2056       S  0.74558687  0.95274189  0.80937766    -0.32900
H2057       H  0.71657874  0.95988361  0.78154640     0.28500
H2058       H  0.81356946  0.84892775  0.87608790     0.28500
H2059       H  0.72764240  0.87345340  0.89010992     0.19100
H2060       H  0.80441037  0.93861678  0.76159967     0.19100
C2061       C  0.89887360  0.74684991  0.91840730    -0.06800
C2062       C  0.91635680  0.76432267  0.96349243    -0.17900
C2063       C  0.91484377  0.79670592  0.96494519     0.10400
C2064       C  0.89438375  0.81196483  0.92197227    -0.06700
C2065       C  0.87641960  0.79420583  0.87772615    -0.17900
C2066       C  0.87845690  0.76182998  0.87547614     0.10500
S2067       S  0.94113274  0.81702951  0.01966354    -0.32900
S2068       S  0.85335834  0.73973308  0.82084187    -0.32900
H2069       H  0.84190189  0.76526542  0.78615088     0.28500
H2070       H  0.95074242  0.83947196  0.97420738     0.28500
H2071       H  0.93195752  0.75268330  0.99667943     0.19100
H2072       H  0.86051980  0.80575574  0.84513139     0.19100
C2073       C  0.65236252  0.73986330  0.77528003    -0.06800
C2074       C  0.63176259  0.75315584  0.73083781    -0.17900
C2075       C  0.62992167  0.78545825  0.97297066     0.10400
C2076       C  0.64721368  0.80570401  0.76577066    -0.06700
C2077       C  0.66776673  0.79211463  0.81077250    -0.17900
C2078       C  0.67071024  0.75968021  0.81551163     0.10500
S2079       S  0.60080863  0.79838777  0.91657360    -0.32900
S2080       S  0.69927107  0.74514763  0.87160751    -0.32900
H2081       H  0.70783977  0.72029230  0.83318747     0.28500
H2082       H  0.62143007  0.81777854  0.88305903     0.28500
H2083       H  0.61883227  0.73810353  0.94663545     0.19100
H2084       H  0.68211011  0.80691235  0.84204957     0.19100
C2085       C  0.80968267  0.65202076  0.87635004    -0.06800
C2086       C  0.80027246  0.63111788  0.82814285    -0.17900
C2087       C  0.76959340  0.62947506  0.80470659     0.10400
C2088       C  0.74731113  0.64951892  0.82873325    -0.06700
C2089       C  0.75657757  0.67038926  0.87749044    -0.17900
C2090       C  0.78747062  0.67205695  0.90115944     0.10500
S2091       S  0.76014568  0.59984582  0.74725910    -0.32900
S2092       S  0.79765391  0.70246450  0.95716081    -0.32900
H2093       H  0.81120343  0.68265120  0.00253979     0.28500
H2094       H  0.73284940  0.59011614  0.77891899     0.28500
H2095       H  0.81705262  0.61567785  0.80871588     0.19100
H2096       H  0.73975306  0.68585816  0.89671133     0.19100
C2097       C  0.88661036  0.06226329  0.86860235    -0.06800
C2098       C  0.90730877  0.04490980  0.83350587    -0.19500
C2099       C  0.91068114  0.01323099  0.84507406     0.10400
C2100       C  0.89259436  0.99802289  0.89220234    -0.06700
C2101       C  0.87231269  0.01536565  0.92851583    -0.17900
C2102       C  0.86868406  0.04719189  0.91640080     0.10500
S2103       S  0.93924968  0.99396886  0.79914880    -0.32900
S2104       S  0.83874261  0.06631830  0.95879171    -0.32900
H2105       H  0.83011380  0.08505243  0.90655990     0.28500
H2106       H  0.94665403  0.97159380  0.84579534     0.28500
H2107       H  0.92147197  0.05627463  0.79729142     0.19100
H2108       H  0.85795709  0.00370928  0.96401428     0.19100
C2109       C  0.90222828  0.49451020  0.93530272    -0.06800
C2110       C  0.88355347  0.51071606  0.97717296    -0.17900
C2111       C  0.88099881  0.54301402  0.97292828     0.10400
C2112       C  0.89840806  0.56018781  0.92701980    -0.06700
C2113       C  0.91645024  0.54392123  0.88411508    -0.17900
C2114       C  0.91878167  0.51156063  0.88827067     0.10500
S2115       S  0.85372271  0.56033641  0.02526186    -0.32900
S2116       S  0.94549319  0.49406961  0.83599874    -0.32900
H2117       H  0.95680226  0.47355307  0.88310692     0.28500
H2118       H  0.84196021  0.58062893  0.97810955     0.28500
H2119       H  0.87018064  0.49798876  0.01282543     0.19100
H2120       H  0.93002424  0.55661796  0.84875906     0.19100
C2121       C  0.89810688  0.30850196  0.74614111    -0.06800
C2122       C  0.87785678  0.29832745  0.79444157    -0.17900
C2123       C  0.87424878  0.26682635  0.81069606     0.10400
C2124       C  0.89192457  0.24463798  0.77911250    -0.06700
C2125       C  0.91185923  0.25472267  0.73001424    -0.17900
C2126       C  0.91350084  0.28668318  0.96301415     0.10500
S2127       S  0.84582237  0.25673217  0.87043190    -0.32900
S2128       S  0.94220006  0.29726528  0.90430476    -0.32900
H2129       H  0.95271799  0.32472456  0.93516049     0.28500
H2130       H  0.83608519  0.22810057  0.84365426     0.28500
H2131       H  0.86420791  0.31510439  0.81915027     0.19100
H2132       H  0.92392906  0.23833471  0.95562927     0.19100
C2133       C  0.63120853  0.05863610  0.77911703    -0.06800
C2134       C  0.65137870  0.04721912  0.73333542    -0.17900
C2135       C  0.65463897  0.01503249  0.72478627     0.10400
C2136       C  0.63711248  0.99366205  0.76282737    -0.06700
C2137       C  0.61609164  0.00520369  0.80656801    -0.17900
C2138       C  0.61257827  0.03717617  0.81434192     0.10500
S2139       S  0.67958484  0.00292689  0.91524741    -0.32900
S2140       S  0.58336182  0.04906666  0.86911507    -0.32900
H2141       H  0.57519156  0.07578375  0.83409737     0.28500
H2142       H  0.68719920  0.97425558  0.94286044     0.28500
H2143       H  0.66572223  0.06346655  0.70598281     0.19100
H2144       H  0.60214905  0.98905144  0.83505575     0.19100
C2145       C  0.79424627  0.15352628  0.81813979    -0.06800
C2146       C  0.77896913  0.13480075  0.86375963    -0.17900
C2147       C  0.74645584  0.13213924  0.86529037     0.10400
C2148       C  0.72836279  0.14995636  0.82221520    -0.06700
C2149       C  0.74373206  0.16899742  0.77685093    -0.17900
C2150       C  0.77634393  0.17107890  0.77439389     0.10500
S2151       S  0.72988273  0.10418762  0.92077492    -0.32900
S2152       S  0.79310632  0.19779720  0.71654197    -0.32900
H2153       H  0.82227335  0.20279249  0.74687663     0.28500
H2154       H  0.70737927  0.09213983  0.87680715     0.28500
H2155       H  0.79250708  0.12156266  0.89793187     0.19100
H2156       H  0.73024909  0.18293103  0.74362814     0.19100
C2157       C  0.65362085  0.48674104  0.99187518    -0.06800
C2158       C  0.67314080  0.50417132  0.95132756    -0.17900
C2159       C  0.67635681  0.53659931  0.95542662     0.10400
C2160       C  0.65891079  0.55238853  0.75416119    -0.06700
C2161       C  0.64014835  0.53452719  0.79595953    -0.17900
C2162       C  0.63633221  0.50215921  0.78973531     0.10500
S2163       S  0.70183262  0.55444726  0.89685910    -0.32900
S2164       S  0.60727077  0.48323713  0.83800377    -0.32900
H2165       H  0.59738460  0.46124858  0.79182239     0.28500
H2166       H  0.70980381  0.58207068  0.92775761     0.28500
H2167       H  0.68595271  0.49228051  0.91519586     0.19100
H2168       H  0.62690843  0.54604699  0.83189365     0.19100
C2169       C  0.80731291  0.40093034  0.95404213    -0.06800
C2170       C  0.79158494  0.38010150  0.99496474    -0.17900
C2171       C  0.75906350  0.37594296  0.99166618     0.10400
C2172       C  0.74121588  0.39415970  0.94851167    -0.06700
C2173       C  0.75703949  0.41464941  0.90663915    -0.17900
C2174       C  0.78974407  0.41827855  0.90902967     0.10500
S2175       S  0.74211224  0.34556189  0.04119520    -0.32900
S2176       S  0.80745597  0.44652939  0.85559776    -0.32900
H2177       H  0.83218089  0.45552961  0.89743113     0.28500
H2178       H  0.71951806  0.33574243  0.99518056     0.28500
H2179       H  0.80489069  0.36600469  0.02822962     0.19100
H2180       H  0.74381747  0.42877061  0.87331638     0.19100
C2181       C  0.64169442  0.30347296  0.91268355    -0.06800
C2182       C  0.66107226  0.29332617  0.86427055    -0.17900
C2183       C  0.66046348  0.26217210  0.84500618     0.10400
C2184       C  0.63934477  0.24052574  0.87335174    -0.06700
C2185       C  0.62003222  0.25064281  0.92201018    -0.17900
C2186       C  0.62066866  0.28184517  0.94131781     0.10500
S2187       S  0.68730303  0.25183061  0.53174991    -0.32900
S2188       S  0.59297311  0.29288399  0.99998534    -0.32900
H2189       H  0.58701122  0.32198692  0.97195039     0.28500
H2190       H  0.69456974  0.22232459  0.81475313     0.28500
H2191       H  0.67641725  0.30989708  0.58903711     0.19100
H2192       H  0.60369854  0.23426575  0.94397984     0.19100
C2193       C  0.04551110  0.14684230  0.87682097    -0.06800
C2194       C  0.03238909  0.12820994  0.82766066    -0.17900
C2195       C  0.00065059  0.12995478  0.80993478     0.10400
C2196       C  0.98160225  0.15104314  0.84175498    -0.06700
C2197       C  0.99531732  0.17035363  0.88894081    -0.17900
C2198       C  0.02666398  0.16851873  0.90649445     0.10500
S2199       S  0.98543144  0.10253845  0.75166494    -0.32900
S2200       S  0.04128229  0.19516213  0.96633233    -0.32900
H2201       H  0.06927402  0.20157564  0.93418745     0.28500
H2202       H  0.97351247  0.12564609  0.71121285     0.28500
H2203       H  0.04663271  0.11141313  0.80455437     0.19100
H2204       H  0.98132051  0.18695432  0.91332596     0.19100
C2205       C  0.54041347  0.14928342  0.82089522    -0.06800
C2206       C  0.52502246  0.12919234  0.86393709    -0.17900
C2207       C  0.49263885  0.12445070  0.86110674     0.10400
C2208       C  0.47461084  0.14051884  0.81515764    -0.06700
C2209       C  0.48987834  0.16105896  0.77268298    -0.17900
C2210       C  0.52232997  0.16605242  0.77570696     0.10500
S2211       S  0.47629298  0.09578549  0.91439789    -0.32900
S2212       S  0.53926332  0.19581511  0.97260489    -0.32900
H2213       H  0.56020459  0.20751186  0.76880858     0.28500
H2214       H  0.45413166  0.08395432  0.86960094     0.28500
H2215       H  0.53842209  0.11599809  0.89862646     0.19100
H2216       H  0.47688225  0.17426681  0.98731404     0.19100
C2217       C  0.28820222  0.13129976  0.02930092    -0.06800
C2218       C  0.27559973  0.11019766  0.98401121    -0.17900
C2219       C  0.24386392  0.10954270  0.96737061     0.10400
C2220       C  0.22402021  0.13081885  0.99578701    -0.06700
C2221       C  0.23628976  0.15122630  0.04265422    -0.17900
C2222       C  0.26810441  0.15180267  0.05952380     0.10500
S2223       S  0.23017783  0.08085055  0.90992908    -0.32900
S2224       S  0.28208276  0.18195235  0.11304780    -0.32900
H2225       H  0.29686768  0.16155818  0.15555290     0.28500
H2226       H  0.20093165  0.07550891  0.93783650     0.28500
H2227       H  0.28930609  0.09407107  0.71336087     0.19100
H2228       H  0.22125920  0.16784306  0.06416667     0.19100
C2229       C  0.06140025  0.39019734  0.95532267    -0.06800
C2230       C  0.04899007  0.40944998  0.00143999    -0.17900
C2231       C  0.01669664  0.41313106  0.00528406     0.10400
C2232       C  0.99583963  0.39679594  0.96310575    -0.06700
C2233       C  0.00842979  0.37665808  0.91843337    -0.17900
C2234       C  0.04066215  0.37285103  0.91472370     0.10500
S2235       S  0.00408442  0.44139796  0.06057825    -0.32900
S2236       S  0.05372564  0.34464618  0.85858451    -0.32900
H2237       H  0.07940560  0.33536778  0.89629699     0.28500
H2238       H  0.98405538  0.45491199  0.01482582     0.28500
H2239       H  0.06463462  0.42306751  0.03245902     0.19100
H2240       H  0.99300725  0.36342839  0.88631764     0.19100
C2241       C  0.14419299  0.23281979  0.93699358    -0.06800
C2242       C  0.16470528  0.24713124  0.89286534    -0.17900
C2243       C  0.16817560  0.27967795  0.88748408     0.10400
C2244       C  0.15048346  0.29885754  0.92621849    -0.06700
C2245       C  0.13035884  0.28488156  0.97052100    -0.17900
C2246       C  0.12703337  0.25251945  0.97670923     0.10500
S2247       S  0.19660043  0.29530462  0.83279412    -0.32900
S2248       S  0.09790300  0.23900641  0.78541623    -0.32900
H2249       H  0.11848167  0.21962286  0.81735350     0.28500
H2250       H  0.20649406  0.31995171  0.87288544     0.28500
H2251       H  0.17840802  0.23284674  0.86238760     0.19100
H2252       H  0.11682025  0.29949537  0.00074469     0.19100
C2253       C  0.48826691  0.38602462  0.74662641    -0.06800
C2254       C  0.49905351  0.40470045  0.69583159    -0.17900
C2255       C  0.53125841  0.40853181  0.93547951     0.10400
C2256       C  0.55310018  0.39174707  0.97264951    -0.06700
C2257       C  0.54178870  0.37167793  0.02083444    -0.17900
C2258       C  0.51000302  0.36842502  0.03311019     0.10500
S2259       S  0.54341091  0.43277374  0.61812782    -0.32900
S2260       S  0.49853108  0.34042083  0.09320984    -0.32900
H2261       H  0.47102610  0.33064861  0.80895207     0.28500
H2262       H  0.56502437  0.45068722  0.91771420     0.28500
H2263       H  0.48250934  0.41836439  0.66881828     0.19100
H2264       H  0.55786469  0.35805313  0.04927051     0.19100
C2265       C  0.38470201  0.22826452  0.79746595    -0.06800
C2266       C  0.40585695  0.24218633  0.84147136    -0.17900
C2267       C  0.41014207  0.27451252  0.84499889     0.10400
C2268       C  0.39264620  0.29391424  0.80356942    -0.06700
C2269       C  0.37199618  0.27947395  0.00783498    -0.17900
C2270       C  0.36805409  0.24707899  0.00435395     0.10500
S2271       S  0.44027606  0.28864709  0.89947931    -0.32900
S2272       S  0.33976124  0.23157037  0.94714071    -0.32900
H2273       H  0.32929082  0.20663799  0.98592477     0.28500
H2274       H  0.42034792  0.30695557  0.93378151     0.28500
H2275       H  0.41961119  0.22761634  0.87302313     0.19100
H2276       H  0.35839102  0.29363491  0.97526262     0.19100
C2277       C  0.30900451  0.38764361  0.85395423    -0.06800
C2278       C  0.30083851  0.40717963  0.90401067    -0.17900
C2279       C  0.26970317  0.40957214  0.92189280     0.10400
C2280       C  0.24603284  0.39175538  0.88985114    -0.06700
C2281       C  0.25432649  0.37205467  0.84017355    -0.17900
C2282       C  0.28541123  0.36929098  0.82286403     0.10500
S2283       S  0.26144391  0.43758024  0.98199657    -0.32900
S2284       S  0.29342249  0.34105745  0.76251655    -0.32900
H2285       H  0.32162788  0.33172716  0.79115193     0.28500
H2286       H  0.23495192  0.44829610  0.94888508     0.28500
H2287       H  0.31867779  0.42166208  0.92766963     0.19100
H2288       H  0.23644470  0.35831403  0.81496807     0.19100
C2289       C  0.13650918  0.97930834  0.92879886    -0.06800
C2290       C  0.11570529  0.99483340  0.88743132    -0.17900
C2291       C  0.11163867  0.02694362  0.89102662     0.10400
C2292       C  0.12879236  0.04457115  0.93692488    -0.06700
C2293       C  0.14844760  0.02923348  0.98035124    -0.17900
C2294       C  0.15300142  0.99707765  0.97655571     0.10500
S2295       S  0.08396280  0.04399910  0.83604409    -0.32900
S2296       S  0.18273639  0.98257965  0.03019699    -0.32900
H2297       H  0.18148999  0.95146668  0.01247642     0.28500
H2298       H  0.07602454  0.06848345  0.87617525     0.28500
H2299       H  0.10254759  0.98178302  0.85116930     0.19100
H2300       H  0.16185055  0.04282834  0.01541822     0.19100
C2301       C  0.04905274  0.89131042  0.88071203    -0.06800
C2302       C  0.03801823  0.91207009  0.92556282    -0.17900
C2303       C  0.00636926  0.91831896  0.92873178     0.10400
C2304       C  0.98462672  0.90299973  0.88690141    -0.06700
C2305       C  0.99587022  0.88285108  0.84058187    -0.17900
C2306       C  0.02774167  0.87653592  0.83752075     0.10500
S2307       S  0.99579406  0.94710889  0.98563278    -0.32900
S2308       S  0.03930798  0.84805223  0.78051806    -0.32900
H2309       H  0.06555610  0.83792262  0.81526950     0.28500
H2310       H  0.97226563  0.95965439  0.94643500     0.28500
H2311       H  0.05439175  0.92400466  0.95796600     0.19100
H2312       H  0.97959871  0.87097601  0.80819685     0.19100
C2313       C  0.15241464  0.55288030  0.94866040    -0.06800
C2314       C  0.17230795  0.53580451  0.98871999    -0.17900
C2315       C  0.17437795  0.50341440  0.98367865     0.10400
C2316       C  0.15653117  0.48713815  0.93592754    -0.06700
C2317       C  0.13735900  0.50435595  0.89434288    -0.17900
C2318       C  0.13454860  0.53667725  0.90124987     0.10500
S2319       S  0.20102507  0.48430472  0.79262086    -0.32900
S2320       S  0.10533781  0.55501739  0.85290738    -0.32900
H2321       H  0.09625238  0.57464538  0.90211864     0.28500
H2322       H  0.20727128  0.50946133  0.83410123     0.28500
H2323       H  0.18570238  0.54841170  0.78004581     0.19100
H2324       H  0.12309569  0.49231091  0.85835923     0.19100
C2325       C  0.05882201  0.65055574  0.98222581    -0.06800
C2326       C  0.04698179  0.67405080  0.94218497    -0.17900
C2327       C  0.01483338  0.67692224  0.93156707     0.10400
C2328       C  0.99362338  0.65615979  0.96208880    -0.06700
C2329       C  0.00519354  0.63394906  0.00491632    -0.17900
C2330       C  0.03733625  0.63069097  0.01458004     0.10500
S2331       S  0.00211722  0.70887073  0.88241916    -0.32900
S2332       S  0.04906231  0.59882878  0.06382840    -0.32900
H2333       H  0.06976408  0.58847292  0.01784800     0.28500
H2334       H  0.98904137  0.68966973  0.83429028     0.28500
H2335       H  0.06292261  0.69012766  0.91818201     0.19100
H2336       H  0.98907371  0.61792580  0.02860063     0.19100
C2337       C  0.15138378  0.73619683  0.78749353    -0.06800
C2338       C  0.12820917  0.74351227  0.83111194    -0.17900
C2339       C  0.12572926  0.77369915  0.85512108     0.10400
C2340       C  0.14671380  0.79763842  0.83515235    -0.06700
C2341       C  0.17008685  0.79029232  0.04243313    -0.17900
C2342       C  0.17275425  0.76002496  0.01844569     0.10500
S2343       S  0.09398305  0.78075503  0.90743093    -0.32900
S2344       S  0.20349691  0.75355296  0.96334997    -0.32900
H2345       H  0.18330292  0.74132760  0.91553909     0.28500
H2346       H  0.11358515  0.79150175  0.95773964     0.28500
H2347       H  0.11183596  0.72542678  0.84685826     0.19100
H2348       H  0.18558597  0.80871576  0.02483571     0.19100
C2349       C  0.38280974  0.97616464  0.83123062    -0.06800
C2350       C  0.40109385  0.99074737  0.78450408    -0.17900
C2351       C  0.40046428  0.02288706  0.77450332     0.10400
C2352       C  0.38066339  0.04111251  0.81103982    -0.06700
C2353       C  0.36143163  0.02616874  0.85625302    -0.17900
C2354       C  0.36205951  0.99394995  0.86620554     0.10500
S2355       S  0.42740382  0.03919984  0.71820529    -0.32900
S2356       S  0.33944285  0.97740429  0.17804745    -0.32900
H2357       H  0.32985759  0.94921193  0.88745850     0.28500
H2358       H  0.43719859  0.06383235  0.75851011     0.28500
H2359       H  0.41701701  0.97715894  0.75740997     0.19100
H2360       H  0.35005317  0.04005632  0.13887539     0.19100
C2361       C  0.48690392  0.89360331  0.83719530    -0.06800
C2362       C  0.49825501  0.87501721  0.78852152    -0.17900
C2363       C  0.52997843  0.87480817  0.77481298     0.10400
C2364       C  0.55158812  0.89410271  0.80922141    -0.06700
C2365       C  0.54048778  0.91254309  0.85861904    -0.17900
C2366       C  0.50846831  0.91282995  0.87240535     0.10500
S2367       S  0.54154639  0.84779850  0.71537854    -0.32900
S2368       S  0.49658853  0.93961249  0.93239512    -0.32900
H2369       H  0.46954079  0.94860525  0.89869901     0.28500
H2370       H  0.56819499  0.83917430  0.75075162     0.28500
H2371       H  0.48229940  0.85976206  0.76157337     0.19100
H2372       H  0.55669431  0.92773249  0.88507018     0.19100
C2373       C  0.30080819  0.87845534  0.88906510    -0.06800
C2374       C  0.28825923  0.89810676  0.93456599    -0.17900
C2375       C  0.25610048  0.90249068  0.93667467     0.10400
C2376       C  0.23570972  0.88623850  0.89393543    -0.06700
C2377       C  0.24799323  0.86550663  0.85077457    -0.17900
C2378       C  0.28002714  0.86124107  0.84827053     0.10500
S2379       S  0.24291003  0.93138993  0.99011190    -0.32900
S2380       S  0.29231701  0.83224513  0.79417376    -0.32900
H2381       H  0.31488864  0.82102833  0.83753495     0.28500
H2382       H  0.22287627  0.94423267  0.94350406     0.28500
H2383       H  0.30366113  0.91150036  0.96643455     0.19100
H2384       H  0.23238855  0.85227848  0.81892140     0.19100
C2385       C  0.40168725  0.54667814  0.01300003    -0.06800
C2386       C  0.42231819  0.53381971  0.81083136    -0.17900
C2387       C  0.42205643  0.50167356  0.82338007     0.10400
C2388       C  0.39990561  0.48179038  0.79144190    -0.06700
C2389       C  0.37768032  0.49508551  0.75008050    -0.17900
C2390       C  0.37772670  0.52709027  0.73821473     0.10500
S2391       S  0.45252801  0.48732193  0.87511904    -0.32900
S2392       S  0.34708737  0.54151883  0.68667437    -0.32900
H2393       H  0.34558555  0.56742235  0.95547100     0.28500
H2394       H  0.43165848  0.47350160  0.91850477     0.28500
H2395       H  0.43755968  0.54930446  0.08676254     0.19100
H2396       H  0.36009284  0.48033571  0.72628911     0.19100
C2397       C  0.50104872  0.63961549  0.95619484    -0.06800
C2398       C  0.51728407  0.61176561  0.95667793    -0.17900
C2399       C  0.55005969  0.61208606  0.96093969     0.10400
C2400       C  0.56640703  0.64054051  0.71605609    -0.06700
C2401       C  0.55012033  0.66815389  0.71448913    -0.17900
C2402       C  0.51744704  0.66768448  0.71022860     0.10500
S2403       S  0.56895005  0.57521786  0.96542249    -0.32900
S2404       S  0.49782183  0.70398975  0.71056278    -0.32900
H2405       H  0.52455701  0.72385683  0.71130024     0.28500
H2406       H  0.59683383  0.58572322  0.93704454     0.28500
H2407       H  0.50434800  0.58967062  0.95608487     0.19100
H2408       H  0.56308410  0.69008785  0.71956445     0.19100
C2409       C  0.24678255  0.63956074  0.98960725    -0.06800
C2410       C  0.26554770  0.65741334  0.03196560    -0.17900
C2411       C  0.29819918  0.65839836  0.02781918     0.10400
C2412       C  0.31294130  0.64010611  0.98166657    -0.06700
C2413       C  0.29398454  0.62187888  0.93991792    -0.17900
C2414       C  0.26134367  0.62119846  0.94371088     0.10500
S2415       S  0.31922481  0.68548546  0.07950430    -0.32900
S2416       S  0.23967908  0.59529919  0.89042117    -0.32900
H2417       H  0.21619389  0.58757346  0.93406846     0.28500
H2418       H  0.33946825  0.69614861  0.03164038     0.28500
H2419       H  0.25460960  0.67188893  0.06668324     0.19100
H2420       H  0.30466679  0.60752782  0.90465355     0.19100
C2421       C  0.40724914  0.72917228  0.92365197    -0.06800
C2422       C  0.38739562  0.74681215  0.96005925    -0.17900
C2423       C  0.38354609  0.77835038  0.94756206     0.10400
C2424       C  0.40105471  0.79355647  0.89971049    -0.06700
C2425       C  0.42100635  0.77614812  0.86311506    -0.17900
C2426       C  0.42454354  0.74428658  0.87470748     0.10500
S2427       S  0.35370187  0.79658302  0.74080199    -0.32900
S2428       S  0.45334576  0.72607509  0.82790384    -0.32900
H2429       H  0.45438939  0.69722348  0.85891147     0.28500
H2430       H  0.34484132  0.81691778  0.94091131     0.28500
H2431       H  0.37305784  0.73513582  0.74677125     0.19100
H2432       H  0.43457828  0.78767174  0.82616970     0.19100
loop_ 
_geom_bond_atom_site_label_1 
_geom_bond_atom_site_label_2 
_geom_bond_distance 
_geom_bond_site_symmetry_2 
_ccdc_geom_bond_type 
O1           Ni9   1.921       .  S
O1         C1835   1.281   1_554  A
O2         Ni617   1.911       .  S
O2           C12   1.280       .  A
O3         Ni617   1.917       .  S
O3           C13   1.280       .  A
O4           Ni9   1.921       .  S
O4         C1838   1.280   1_554  A
O5          Ni10   1.934       .  S
O5           C14   1.283       .  A
O6          Ni10   1.930       .  S
O6           C13   1.285       .  A
O7          Ni10   1.921       .  S
O7           C12   1.280       .  A
O8          Ni10   1.918       .  S
O8           C11   1.281       .  A
Ni9        O1826   1.913   1_554  S
Ni9        O1827   1.917       .  S
Ni9       Ni1834   2.385   1_554  S
Ni10       Ni617   2.386       .  S
C11         O609   1.281       .  A
C11         C561   1.479       .  S
C12         C597   1.478       .  S
C13         C588   1.492       .  S
C14         O612   1.280       .  A
C14         C573   1.480       .  S
O15         Ni23   1.913       .  S
O15          C25   1.280       .  A
O16         Ni23   1.913       .  S
O16          C26   1.279       .  A
O17         Ni23   1.917       .  S
O17          C27   1.281       .  A
O18         Ni23   1.910       .  S
O18          C28   1.280       .  A
O19         Ni24   1.932       .  S
O19          C28   1.284       .  A
O20         Ni24   1.923       .  S
O20          C27   1.283       .  A
O21         Ni24   1.918       .  S
O21          C26   1.281       .  A
O22         Ni24   1.915       .  S
O22          C25   1.281       .  A
Ni23        Ni24   2.387       .  S
C25         C525   1.471       .  S
C26         C600   1.474       .  S
C27         C549   1.487       .  S
C28         C537   1.486       .  S
O29         Ni37   1.944       .  S
O29          C39   1.286       .  A
O30         Ni37   1.948       .  S
O30         C648   1.287       .  A
O31         Ni37   1.910       .  S
O31          C41   1.278       .  A
O32         Ni37   1.906       .  S
O32          C42   1.280       .  A
O33         Ni38   1.939       .  S
O33        C1866   1.286   1_554  A
O34         Ni38   1.936       .  S
O34        C1865   1.285   1_554  A
O35         Ni38   1.910       .  S
O35          C40   1.278       .  A
O36         Ni38   1.907       .  S
O36        C1863   1.278   1_554  A
Ni37       Ni646   2.383       .  S
Ni38      Ni1861   2.383   1_554  S
C39         O644   1.278       .  A
C39         C489   1.492       .  S
C40        O1854   1.288   1_554  A
C40         C513   1.493       .  S
C41         O642   1.285       .  A
C41         C585   1.481       .  S
C42         O641   1.285       .  A
C42         C501   1.495       .  S
O43         Ni51   1.942       .  S
O43          C53   1.286       .  A
O44         Ni51   1.947       .  S
O44          C54   1.287       .  A
O45         Ni51   1.916       .  S
O45          C55   1.278       .  A
O46         Ni51   1.912       .  S
O46          C56   1.280       .  A
O47         Ni52   1.922       .  S
O47          C56   1.281       .  A
O48         Ni52   1.924       .  S
O48          C55   1.284       .  A
O49         Ni52   1.912       .  S
O49          C54   1.278       .  A
O50         Ni52   1.912       .  S
O50          C53   1.279       .  A
Ni51        Ni52   2.386       .  S
C53         C465   1.492       .  S
C54         C516   1.493       .  S
C55         C552   1.477       .  S
C56         C477   1.475       .  S
O57        Ni673   1.928       .  S
O57         C675   1.282       .  A
O58         Ni65   1.921   1_554  S
O58          C68   1.282       .  A
O59         Ni65   1.906       .  S
O59          C69   1.280   1_556  A
O60         Ni65   1.905   1_554  S
O60          C70   1.280       .  A
O61         Ni66   1.928       .  S
O61          C70   1.282       .  A
O62         Ni66   1.928       .  S
O62          C69   1.282       .  A
O63         Ni66   1.913       .  S
O63          C68   1.279       .  A
O64         Ni66   1.911       .  S
O64          C67   1.280       .  A
Ni65       O1881   1.927       .  S
Ni65        Ni66   2.383   1_556  S
C67        O1881   1.282   1_554  A
C67         C429   1.480   1_554  S
C68         C453   1.478       .  S
C69         C564   1.488       .  S
C70         C444   1.489       .  S
O71         Ni79   1.937       .  S
O71          C81   1.285       .  A
O72         Ni79   1.937       .  S
O72          C82   1.286       .  A
O73         Ni79   1.905       .  S
O73          C83   1.277       .  A
O74         Ni79   1.906       .  S
O74          C84   1.278       .  A
O75         Ni80   1.936       .  S
O75          C84   1.285       .  A
O76         Ni80   1.940       .  S
O76          C83   1.287       .  A
O77         Ni80   1.902       .  S
O77          C82   1.277       .  A
O78         Ni80   1.906       .  S
O78          C81   1.278       .  A
Ni79        Ni80   2.386       .  S
C81         C405   1.483       .  S
C82         C456   1.480       .  S
C83         C492   1.493       .  S
C84         C420   1.478       .  S
O85         Ni93   1.923       .  S
O85          C95   1.282       .  A
O86         Ni93   1.925       .  S
O86          C96   1.281       .  A
O87         Ni93   1.908       .  S
O87          C97   1.279       .  A
O88         Ni93   1.904       .  S
O88          C98   1.278       .  A
O89         Ni94   1.927       .  S
O89         C706   1.283       .  A
O90         Ni94   1.929       .  S
O90         C705   1.283       .  A
O91         Ni94   1.910       .  S
O91         C704   1.280       .  A
O92         Ni94   1.909       .  S
O92         C703   1.279       .  A
Ni93      Ni1918   2.388   1_554  S
Ni94       Ni701   2.387       .  S
C95        O1916   1.278       .  A
C95         C384   1.476       .  S
C96        O1915   1.279   1_554  A
C96        C2217   1.478       .  S
C97        O1914   1.284       .  A
C97         C528   1.483       .  S
C98        O1913   1.283   1_554  A
C98         C441   1.474       .  S
O99        Ni107   1.918       .  S
O99         C109   1.279       .  A
O100       Ni107   1.913       .  S
O100        C110   1.280       .  A
O101       Ni107   1.920       .  S
O101        C111   1.282       .  A
O102       Ni107   1.926       .  S
O102        C112   1.285       .  A
O103       Ni108   1.922       .  S
O103        C112   1.279       .  A
O104       Ni108   1.926       .  S
O104        C111   1.282       .  A
O105       Ni108   1.923       .  S
O105        C110   1.282       .  A
O106       Ni108   1.925       .  S
O106        C109   1.283       .  A
Ni107      Ni108   2.385       .  S
C109        C369   1.478       .  S
C110        C396   1.477       .  S
C111        C468   1.480       .  S
C112        C417   1.499       .  S
O113       Ni121   1.936       .  S
O113       C1947   1.284   1_554  A
O114       Ni729   1.937       .  S
O114        C124   1.286       .  A
O115       Ni729   1.909       .  S
O115        C125   1.278       .  A
O116       Ni121   1.901       .  S
O116       C1950   1.279   1_554  A
O117       Ni122   1.945       .  S
O117        C126   1.287       .  A
O118       Ni122   1.938       .  S
O118        C125   1.286       .  A
O119       Ni122   1.903       .  S
O119        C124   1.277       .  A
O120       Ni122   1.900       .  S
O120        C123   1.277       .  A
Ni121      O1938   1.936   1_554  S
Ni121      O1939   1.909       .  S
Ni121     Ni1946   2.385   1_554  S
Ni122      Ni729   2.385       .  S
C123        O721   1.285       .  A
C123        C333   1.482       .  S
C124        C357   1.479       .  S
C125        C348   1.491       .  S
C126        O724   1.278       .  A
C126        C432   1.492       .  S
O127       Ni135   1.933   1_556  S
O127        C137   1.284   1_556  A
O128       Ni135   1.932       .  S
O128        C138   1.285       .  A
O129       Ni135   1.903       .  S
O129        C139   1.278       .  A
O130       Ni135   1.907       .  S
O130        C140   1.278       .  A
O131       Ni136   1.913       .  S
O131        C140   1.282       .  A
O132       Ni136   1.917       .  S
O132        C139   1.282       .  A
O133       Ni136   1.909       .  S
O133        C138   1.278       .  A
O134       Ni136   1.912       .  S
O134        C137   1.280       .  A
Ni135      Ni136   2.386       .  S
C137        C309   1.485       .  S
C138        C360   1.481       .  S
C139        C324   1.477       .  S
C140        C381   1.477       .  S
O141       Ni149   1.930       .  S
O141        C151   1.284       .  A
O142       Ni149   1.930       .  S
O142        C760   1.284       .  A
O143       Ni149   1.919       .  S
O143        C153   1.280       .  A
O144       Ni149   1.916       .  S
O144        C154   1.281       .  A
O145       Ni150   1.938       .  S
O145       C1978   1.286   1_554  A
O146       Ni150   1.931       .  S
O146       C1977   1.285   1_554  A
O147       Ni150   1.903       .  S
O147        C152   1.277   1_554  A
O148       Ni150   1.906   1_556  S
O148       C1975   1.278       .  A
Ni149      Ni758   2.386       .  S
Ni150     Ni1973   2.386   1_554  S
C151        O756   1.279       .  A
C151        C285   1.481       .  S
C152       O1966   1.285       .  A
C152        C297   1.481       .  S
C153        O754   1.284       .  A
C153        C345   1.483       .  S
C154        O753   1.285       .  A
C154        C408   1.495       .  S
O155       Ni163   1.923       .  S
O155        C165   1.281       .  A
O156       Ni163   1.926       .  S
O156        C166   1.283       .  A
O157       Ni163   1.904       .  S
O157        C167   1.278       .  A
O158       Ni163   1.907       .  S
O158        C168   1.281       .  A
O159       Ni164   1.921       .  S
O159        C168   1.280       .  A
O160       Ni164   1.923       .  S
O160        C167   1.282       .  A
O161       Ni164   1.916       .  S
O161        C166   1.281       .  A
O162       Ni164   1.911       .  S
O162        C165   1.281       .  A
Ni163      Ni164   2.388       .  S
C165        C273   1.479       .  S
C166        C300   1.483       .  S
C167        C321   1.469       .  S
C168        C372   1.479       .  S
O169       Ni785   1.927       .  S
O169        C787   1.282       .  A
O170       Ni177   1.939       .  S
O170        C180   1.286   1_556  A
O171       Ni177   1.905       .  S
O171        C181   1.275   1_556  A
O172       Ni177   1.911       .  S
O172        C182   1.279   1_556  A
O173       Ni178   1.937       .  S
O173        C182   1.285       .  A
O174       Ni178   1.933       .  S
O174        C181   1.287       .  A
O175       Ni178   1.908       .  S
O175        C180   1.277       .  A
O176       Ni178   1.910       .  S
O176        C179   1.278   1_554  A
Ni177      O1993   1.929       .  S
Ni177      Ni178   2.386   1_556  S
C179       O1993   1.283       .  A
C179        C576   1.472       .  S
C180        C264   1.481       .  S
C181        C336   1.491       .  S
C182        C249   1.481       .  S
O183       Ni191   1.928       .  S
O183        C193   1.284       .  A
O184       Ni191   1.928       .  S
O184        C194   1.282       .  A
O185       Ni191   1.908       .  S
O185        C195   1.279       .  A
O186       Ni191   1.904       .  S
O186        C196   1.277       .  A
O187       Ni192   1.919       .  S
O187        C196   1.282       .  A
O188       Ni192   1.923       .  S
O188        C195   1.283       .  A
O189       Ni192   1.902       .  S
O189        C194   1.278       .  A
O190       Ni192   1.909       .  S
O190        C193   1.279       .  A
Ni191      Ni192   2.388       .  S
C193        C504   1.482       .  S
C194        C261   1.475       .  S
C195        C288   1.480       .  S
C196        C237   1.468       .  S
O197       Ni205   1.925       .  S
O197        C207   1.281       .  A
O198       Ni205   1.922       .  S
O198        C208   1.282   1_554  A
O199       Ni205   1.918       .  S
O199        C209   1.281       .  A
O200       Ni205   1.925       .  S
O200        C210   1.284       .  A
O201       Ni206   1.926       .  S
O201        C818   1.281       .  A
O202       Ni206   1.928       .  S
O202        C817   1.282       .  A
O203       Ni206   1.925       .  S
O203        C816   1.282       .  A
O204      Ni2030   1.924       .  S
O204        C207   1.283   1_556  A
Ni205     Ni2030   2.384   1_554  S
Ni206       O812   1.924       .  S
Ni206      Ni813   2.384       .  S
C207        C540   1.485       .  S
C208       O2027   1.282       .  A
C208       C2049   1.486       .  S
C209       O2026   1.283   1_554  A
C209        C312   1.481       .  S
C210       O2025   1.281   1_554  A
C210        C252   1.500       .  S
O211       Ni219   1.928       .  S
O211        C221   1.284       .  A
O212       Ni219   1.931       .  S
O212        C222   1.284       .  A
O213       Ni219   1.909       .  S
O213        C223   1.279       .  A
O214       Ni219   1.903       .  S
O214        C224   1.279       .  A
O215       Ni220   1.923       .  S
O215        C224   1.282       .  A
O216       Ni220   1.923       .  S
O216        C223   1.281       .  A
O217       Ni220   1.914       .  S
O217        C222   1.280       .  A
O218       Ni220   1.915       .  S
O218        C221   1.280       .  A
Ni219      Ni220   2.387       .  S
C221        C480   1.486       .  S
C222        C228   1.485       .  S
C223        C276   1.474       .  S
C224        C240   1.478       .  S
C225        C816   1.485       .  S
C225        C226   1.406       .  A
C225        C838   1.415       .  A
C226        C227   1.405       .  A
C226        H235   1.084       .  S
C227        C228   1.415       .  A
C227        S231   1.803       .  S
C228        C229   1.405       .  A
C229        C838   1.401       .  A
C229        H844   1.084       .  S
C230       C2049   1.415   1_554  A
C230       C2053   1.400   1_554  A
C230        S232   1.805       .  S
S231        H234   1.407       .  S
S232        H233   1.404       .  S
H236       C2053   1.084   1_554  S
C237        C238   1.400       .  A
C237        C242   1.408       .  A
C238        C239   1.397       .  A
C238        H247   1.084       .  S
C239        C240   1.415       .  A
C239        S243   1.800       .  S
C240        C241   1.406       .  A
C241        C242   1.400       .  A
C241        H248   1.083       .  S
C242        S244   1.806       .  S
S243        H246   1.407       .  S
S244        H245   1.407       .  S
C249        C250   1.400   1_554  A
C249        C254   1.410       .  A
C250       C2075   1.400       .  A
C250       H2083   1.085       .  S
C251        C858   1.400       .  A
C251        C860   1.422       .  A
C251        S255   1.797       .  S
C252        C253   1.412       .  A
C252       C2075   1.422   1_554  A
C253        C254   1.405       .  A
C253        H260   1.084       .  S
C254        S256   1.800       .  S
S255        H258   1.394       .  S
S256        H257   1.405       .  S
H259        C858   1.085       .  S
C261        C262   1.400       .  A
C261        C266   1.413       .  A
C262        C263   1.393       .  A
C262        H271   1.081       .  S
C263        C264   1.410       .  A
C263        S267   1.789   1_554  S
C264        C265   1.406       .  A
C265        C266   1.403       .  A
C265        H272   1.082       .  S
C266        S268   1.799       .  S
S267        H270   1.407   1_556  S
S268        H269   1.401       .  S
C273        C274   1.401       .  A
C273        C278   1.416       .  A
C274        C275   1.393       .  A
C274        H283   1.084       .  S
C275        C276   1.411   1_545  A
C275        S279   1.799   1_545  S
C276        C277   1.403   1_565  A
C277        C278   1.403       .  A
C277        H284   1.084       .  S
C278        S280   1.800       .  S
S279        H282   1.404       .  S
S280        H281   1.402       .  S
C285        C286   1.403       .  A
C285        C290   1.411       .  A
C286        C287   1.398       .  A
C286        H295   1.084       .  S
C287        C288   1.416       .  A
C287        S291   1.802       .  S
C288        C289   1.402       .  A
C289        C290   1.399       .  A
C289        H296   1.084       .  S
C290        S292   1.789       .  S
S291        H294   1.408       .  S
S292        H293   1.407       .  S
C297        C298   1.405   1_556  A
C297       C2126   1.412       .  A
C298        C299   1.400       .  A
C298        H307   1.084       .  S
C299        C300   1.415       .  A
C299        S303   1.805       .  S
C300        C301   1.407   1_554  A
C301       C2126   1.403       .  A
C301       H2132   1.084       .  S
C302        C905   1.412       .  A
C302        C909   1.402       .  A
C302        S304   1.803       .  S
S303        H306   1.403       .  S
S304        H305   1.406       .  S
H308        C909   1.084       .  S
C309        C310   1.406   1_554  A
C309        C314   1.415       .  A
C310        C311   1.406       .  A
C310        H319   1.084       .  S
C311        C312   1.416   1_546  A
C311       S2139   1.805       .  S
C312        C313   1.403   1_565  A
C313        C314   1.399       .  A
C313        H320   1.085   1_545  S
C314        S316   1.805       .  S
S315        C919   1.808       .  S
S315        H318   1.400   1_545  S
S316        H317   1.407       .  S
C321        C322   1.402       .  A
C321        C326   1.411       .  A
C322        C323   1.395       .  A
C322        H331   1.081       .  S
C323        C324   1.413       .  A
C323        S327   1.804       .  S
C324        C325   1.407       .  A
C325        C326   1.398       .  A
C325        H332   1.084   1_554  S
C326        S328   1.806   1_554  S
S327        H330   1.408       .  S
S328        H329   1.401       .  S
C333        C334   1.400       .  A
C333        C946   1.409       .  A
C334        C335   1.398       .  A
C334        H343   1.085       .  S
C335        C944   1.425       .  A
C335        S339   1.807       .  S
C336        C337   1.407       .  A
C336       C2159   1.426   1_554  A
C337        C338   1.400       .  A
C337        H344   1.084       .  S
C338       C2157   1.409   1_554  A
C338        S340   1.792       .  S
S339        H342   1.384       .  S
S340        H341   1.406       .  S
C345        C346   1.402       .  A
C345        C350   1.415       .  A
C346        C347   1.401       .  A
C346        H355   1.084       .  S
C347        C348   1.420       .  A
C347        S351   1.805       .  S
C348        C349   1.406       .  A
C349        C350   1.405       .  A
C349        H356   1.084       .  S
C350        S352   1.804       .  S
S351        H354   1.408       .  S
S352        H353   1.407       .  S
C357        C358   1.406       .  A
C357        C362   1.412       .  A
C358        C359   1.401       .  A
C358        H975   1.084       .  S
C359        C360   1.413       .  A
C359        S971   1.804       .  S
C360        C361   1.406       .  A
C361        C362   1.401       .  A
C361        H368   1.084       .  S
C362        S364   1.803       .  S
S363       C2183   1.803       .  S
S363       H2190   1.406       .  S
S364        H365   1.406       .  S
H366        S971   1.406       .  S
H367       C2182   1.084       .  S
C369        C370   1.404       .  A
C369        C374   1.409       .  A
C370        C371   1.405   1_455  A
C370        H379   1.083       .  S
C371        C372   1.417       .  A
C371        S375   1.800       .  S
C372        C373   1.400       .  A
C373        C374   1.392   1_655  A
C373        H380   1.085       .  S
C374        S376   1.790       .  S
S375        H378   1.404   1_554  S
S376        H377   1.406       .  S
C381        C382   1.402       .  A
C381        C386   1.416       .  A
C382        C383   1.394       .  A
C382        H391   1.084       .  S
C383        C384   1.410       .  A
C383        S387   1.791       .  S
C384        C385   1.404       .  A
C385        C386   1.398       .  A
C385       H2216   1.084   1_554  S
C386       S2212   1.804   1_554  S
S387        H390   1.407       .  S
S388        C994   1.804       .  S
S388        H997   1.408       .  S
H389       S2212   1.408   1_554  S
H392        C993   1.084       .  S
C393        C704   1.481       .  S
C393        C394   1.405       .  A
C393        C398   1.414       .  A
C394        C395   1.398       .  A
C394       H1011   1.084       .  S
C395        C396   1.413       .  A
C395        S399   1.804       .  S
C396        C397   1.403       .  A
C397        C398   1.402       .  A
C397        H404   1.084       .  S
C398        S400   1.798       .  S
S399        H402   1.406       .  S
S400        H401   1.402       .  S
H403       C2218   1.084       .  S
C405        C406   1.401       .  A
C405        C410   1.415       .  A
C406        C407   1.404       .  A
C406        H415   1.084       .  S
C407        C408   1.417   1_455  A
C407        S411   1.789       .  S
C408        C409   1.406   1_655  A
C409        C410   1.399       .  A
C409        H416   1.084   1_455  S
C410        S412   1.805       .  S
S411        H414   1.407   1_455  S
S412        H413   1.407       .  S
C417        C418   1.412       .  A
C417        C422   1.424       .  A
C418        C419   1.403       .  A
C418        H427   1.084       .  S
C419        C420   1.409       .  A
C419        S423   1.800       .  S
C420        C421   1.399       .  A
C421        C422   1.399       .  A
C421        H428   1.085       .  S
C422       S1032   1.799       .  S
S423        H426   1.406       .  S
S424       C2246   1.797   1_554  S
S424        H425   1.389       .  S
C429        C430   1.403       .  A
C429       C2258   1.412   1_556  A
C430       C2255   1.404       .  A
C430        H439   1.084       .  S
C431        C432   1.416       .  A
C431       C1038   1.406       .  A
C431       S1043   1.791       .  S
C432        C433   1.406       .  A
C433        C434   1.396       .  A
C433        H440   1.084       .  S
C434       C1037   1.411       .  A
C434        S436   1.798       .  S
S435       C2255   1.790       .  S
S435       H2262   1.406       .  S
S436       H1045   1.407       .  S
H437       S2260   1.407       .  S
H438       S1043   1.407       .  S
C441        C442   1.402       .  A
C441       C2270   1.409       .  A
C442        C443   1.397       .  A
C442        H451   1.085       .  S
C443        C444   1.417       .  A
C443        S447   1.798       .  S
C444       C2269   1.411       .  A
C445        C446   1.399       .  A
C445       C1052   1.410       .  A
C445        H452   1.084       .  S
C446       C1049   1.409       .  A
C446        S448   1.801       .  S
S447        H450   1.394       .  S
S448        H449   1.407       .  S
C453        C454   1.405       .  A
C453        C458   1.413       .  A
C454        C455   1.401       .  A
C454        H463   1.084       .  S
C455        C456   1.412       .  A
C455        S459   1.797       .  S
C456        C457   1.405       .  A
C457        C458   1.398       .  A
C457        H464   1.083       .  S
C458        S460   1.804       .  S
S459        H462   1.406       .  S
S460        H461   1.407       .  S
C465        C466   1.407       .  A
C465        C470   1.416       .  A
C466        C467   1.401   1_565  A
C466        H475   1.084       .  S
C467        C468   1.410       .  A
C467        S471   1.802       .  S
C468        C469   1.403       .  A
C469        C470   1.404   1_545  A
C469        H476   1.084       .  S
C470        S472   1.792       .  S
S471        H474   1.406       .  S
S472        H473   1.401       .  S
C477        C478   1.401       .  A
C477        C482   1.411       .  A
C478        C479   1.395       .  A
C478        H487   1.085       .  S
C479        C480   1.415   1_455  A
C479        S483   1.799   1_455  S
C480        C481   1.408       .  A
C481        C482   1.405   1_655  A
C481        H488   1.081       .  S
C482        S484   1.804       .  S
S483        H486   1.405       .  S
S484        H485   1.406       .  S
C489        C490   1.404       .  A
C489        C494   1.412       .  A
C490        C491   1.404       .  A
C490       H1107   1.083       .  S
C491        C492   1.421       .  A
C491       S1103   1.809       .  S
C492        C493   1.403       .  A
C493        C494   1.402       .  A
C493        H500   1.084       .  S
C494        S496   1.786       .  S
S495       C2315   1.808   1_554  S
S495        H498   1.407       .  S
S496        H497   1.407       .  S
H499       C2314   1.083   1_554  S
C501        C502   1.409       .  A
C501        C506   1.417       .  A
C502        C503   1.401       .  A
C502        H511   1.082       .  S
C503        C504   1.412   1_455  A
C503        S507   1.810       .  S
C504        C505   1.402   1_655  A
C505        C506   1.406       .  A
C505        H512   1.083   1_455  S
C506        S508   1.798       .  S
S507        H510   1.407       .  S
S508        H509   1.407       .  S
C513        C514   1.409       .  A
C513       C2342   1.413       .  A
C514        C515   1.405       .  A
C514        H523   1.084       .  S
C515        C516   1.413       .  A
C515        S519   1.800       .  S
C516       C2341   1.410       .  A
C517        C518   1.407       .  A
C517       C1124   1.410       .  A
C517        H524   1.084       .  S
C518       C1121   1.413       .  A
C518        S520   1.800       .  S
S519        H522   1.401       .  S
S520        H521   1.402       .  S
C525        C526   1.399       .  A
C525        C530   1.411       .  A
C526        C527   1.397   1_565  A
C526        H535   1.084       .  S
C527        C528   1.415       .  A
C527        S531   1.790   1_554  S
C528        C529   1.406       .  A
C529        C530   1.398   1_545  A
C529       H2360   1.084       .  S
C530       S2356   1.803       .  S
S531        H534   1.406   1_556  S
S532       C1138   1.802       .  S
S532       H1141   1.406       .  S
H533       S2356   1.405       .  S
H536       C1137   1.084       .  S
C537        C538   1.404       .  A
C537        C542   1.417       .  A
C538        C539   1.396       .  A
C538        H547   1.084       .  S
C539        C540   1.411       .  A
C539        S543   1.796   1_554  S
C540        C541   1.407       .  A
C541        C542   1.407       .  A
C541        H548   1.084       .  S
C542        S544   1.802       .  S
S543        H546   1.407   1_556  S
S544        H545   1.407       .  S
C549        C550   1.405       .  A
C549        C554   1.415       .  A
C550        C551   1.405       .  A
C550        H559   1.082       .  S
C551        C552   1.413       .  A
C551        S555   1.798       .  S
C552        C553   1.397       .  A
C553        C554   1.394       .  A
C553        H560   1.085       .  S
C554        S556   1.790       .  S
S555        H558   1.407       .  S
S556        H557   1.407       .  S
C561       C1170   1.404       .  A
C561       C1174   1.412       .  A
C562        C563   1.404       .  A
C562       C2385   1.405       .  A
C562       H2395   1.084       .  S
C563        C564   1.418       .  A
C563        S567   1.800       .  S
C564        C565   1.407   1_554  A
C565        C566   1.395       .  A
C565        H572   1.084       .  S
C566       C2385   1.413   1_556  A
C566        S568   1.805       .  S
S567        H570   1.401       .  S
S568       H2393   1.407       .  S
H569       S1176   1.407       .  S
H571       C1170   1.084       .  S
C573        C574   1.404       .  A
C573       C1186   1.412       .  A
C574        C575   1.406       .  A
C574        H583   1.084       .  S
C575       C1184   1.414       .  A
C575        S579   1.804       .  S
C576        C577   1.396       .  A
C576       C2399   1.413       .  A
C577        C578   1.401       .  A
C577        H584   1.083       .  S
C578       C2397   1.413       .  A
C578        S580   1.797       .  S
S579        H582   1.406       .  S
S580        H581   1.407       .  S
C585        C586   1.400       .  A
C585        C590   1.415       .  A
C586        C587   1.404       .  A
C586        H595   1.084       .  S
C587        C588   1.422       .  A
C587        S591   1.802       .  S
C588        C589   1.405       .  A
C589        C590   1.400       .  A
C589        H596   1.084       .  S
C590        S592   1.803       .  S
S591        H594   1.403       .  S
S592        H593   1.404       .  S
C597        C598   1.400       .  A
C597        C602   1.418       .  A
C598        C599   1.392       .  A
C598       H1215   1.082       .  S
C599        C600   1.408       .  A
C599       S1211   1.790       .  S
C600        C601   1.400       .  A
C601        C602   1.402       .  A
C601        H608   1.084       .  S
C602        S604   1.797       .  S
S603       C2423   1.789       .  S
S603       H2430   1.404       .  S
S604        H605   1.397       .  S
H606       S1211   1.405       .  S
H607       C2422   1.082       .  S
O609       Ni617   1.920       .  S
O610      Ni1225   1.913       .  S
O610        C620   1.281       .  A
O611      Ni1225   1.917       .  S
O611        C621   1.280       .  A
O612       Ni617   1.918       .  S
O613       Ni618   1.933       .  S
O613        C622   1.283       .  A
O614       Ni618   1.931       .  S
O614        C621   1.285       .  A
O615       Ni618   1.920       .  S
O615        C620   1.280       .  A
O616       Ni618   1.916       .  S
O616        C619   1.281       .  A
Ni618     Ni1225   2.386       .  S
C619       O1217   1.281       .  A
C619       C1169   1.480       .  S
C620       C1205   1.478       .  S
C621       C1196   1.491       .  S
C622       O1220   1.281       .  A
C622       C1181   1.480       .  S
O623       Ni631   1.912       .  S
O623        C633   1.279       .  A
O624       Ni631   1.912       .  S
O624        C634   1.278       .  A
O625       Ni631   1.917       .  S
O625        C635   1.281       .  A
O626       Ni631   1.910       .  S
O626        C636   1.281       .  A
O627       Ni632   1.933       .  S
O627        C636   1.284       .  A
O628       Ni632   1.922       .  S
O628        C635   1.283       .  A
O629       Ni632   1.920       .  S
O629        C634   1.281       .  A
O630       Ni632   1.916       .  S
O630        C633   1.281       .  A
Ni631      Ni632   2.388       .  S
C633       C1133   1.469       .  S
C634       C1208   1.474       .  S
C635       C1157   1.485       .  S
C636       C1145   1.489       .  S
O637       Ni645   1.944       .  S
O637        C647   1.286       .  A
O638       Ni645   1.947       .  S
O638       C1256   1.287       .  A
O639       Ni645   1.913       .  S
O639        C649   1.278       .  A
O640       Ni645   1.909       .  S
O640        C650   1.280       .  A
O641       Ni646   1.939       .  S
O642       Ni646   1.936       .  S
O643       Ni646   1.909       .  S
O643        C648   1.278       .  A
O644       Ni646   1.908       .  S
Ni645     Ni1254   2.383       .  S
C647       O1252   1.279       .  A
C647       C1097   1.492       .  S
C648       C1121   1.491       .  S
C649       O1250   1.285       .  A
C649       C1193   1.481       .  S
C650       O1249   1.285       .  A
C650       C1109   1.493       .  S
O651       Ni659   1.942       .  S
O651        C661   1.285       .  A
O652       Ni659   1.946       .  S
O652        C662   1.287       .  A
O653       Ni659   1.919       .  S
O653        C663   1.279       .  A
O654       Ni659   1.911       .  S
O654        C664   1.280       .  A
O655       Ni660   1.924       .  S
O655        C664   1.281       .  A
O656       Ni660   1.918       .  S
O656        C663   1.282       .  A
O657       Ni660   1.913       .  S
O657        C662   1.279       .  A
O658       Ni660   1.914       .  S
O658        C661   1.281       .  A
Ni659      Ni660   2.386       .  S
C661       C1073   1.496       .  S
C662       C1124   1.491       .  S
C663       C1160   1.474       .  S
C664       C1085   1.474       .  S
O665      Ni1281   1.925       .  S
O665       C1283   1.281       .  A
O666       Ni673   1.921       .  S
O666        C676   1.282       .  A
O667       Ni673   1.910       .  S
O667        C677   1.281       .  A
O668       Ni673   1.910       .  S
O668        C678   1.281       .  A
O669       Ni674   1.927       .  S
O669        C678   1.281       .  A
O670       Ni674   1.927       .  S
O670        C677   1.282       .  A
O671       Ni674   1.918       .  S
O671        C676   1.280       .  A
O672       Ni674   1.916       .  S
O672        C675   1.280       .  A
Ni673      Ni674   2.383       .  S
C675       C1037   1.482       .  S
C676       C1061   1.481       .  S
C677       C1172   1.486       .  S
C678       C1052   1.491       .  S
O679       Ni687   1.936       .  S
O679        C689   1.285       .  A
O680       Ni687   1.939       .  S
O680        C690   1.286       .  A
O681       Ni687   1.905       .  S
O681        C691   1.277       .  A
O682       Ni687   1.907       .  S
O682        C692   1.278       .  A
O683       Ni688   1.936       .  S
O683        C692   1.285       .  A
O684       Ni688   1.941       .  S
O684        C691   1.287       .  A
O685       Ni688   1.907       .  S
O685        C690   1.278       .  A
O686       Ni688   1.909       .  S
O686        C689   1.278       .  A
Ni687      Ni688   2.385       .  S
C689       C1013   1.484       .  S
C690       C1064   1.484       .  S
C691       C1100   1.494       .  S
C692       C1028   1.479       .  S
O693       Ni701   1.927       .  S
O693        C703   1.283       .  A
O694       Ni701   1.927       .  S
O694        C704   1.282       .  A
O695       Ni701   1.908       .  S
O695        C705   1.279       .  A
O696       Ni701   1.906       .  S
O696        C706   1.278       .  A
O697       Ni702   1.925       .  S
O697       C1314   1.283       .  A
O698       Ni702   1.928       .  S
O698       C1313   1.283       .  A
O699       Ni702   1.908       .  S
O699       C1312   1.279       .  A
O700       Ni702   1.910       .  S
O700       C1311   1.279       .  A
Ni702     Ni1309   2.387       .  S
C703        C992   1.479       .  S
C705       C1136   1.481       .  S
C706       C1049   1.475       .  S
O707       Ni715   1.920       .  S
O707        C717   1.280       .  A
O708       Ni715   1.915       .  S
O708        C718   1.281       .  A
O709       Ni715   1.921       .  S
O709        C719   1.281       .  A
O710       Ni715   1.926       .  S
O710        C720   1.284       .  A
O711       Ni716   1.925       .  S
O711        C720   1.280       .  A
O712       Ni716   1.927       .  S
O712        C719   1.282       .  A
O713       Ni716   1.919       .  S
O713        C718   1.280       .  A
O714       Ni716   1.920       .  S
O714        C717   1.282       .  A
Ni715      Ni716   2.384       .  S
C717        C977   1.478       .  S
C718       C1004   1.476       .  S
C719       C1076   1.481       .  S
C720       C1025   1.501       .  S
O721       Ni729   1.939       .  S
O722      Ni1337   1.935       .  S
O722        C732   1.285       .  A
O723      Ni1337   1.911       .  S
O723        C733   1.279       .  A
O724       Ni729   1.902       .  S
O725       Ni730   1.942       .  S
O725        C734   1.286       .  A
O726       Ni730   1.936       .  S
O726        C733   1.286       .  A
O727       Ni730   1.907       .  S
O727        C732   1.278       .  A
O728       Ni730   1.903       .  S
O728        C731   1.278       .  A
Ni730     Ni1337   2.385       .  S
C731       O1329   1.284       .  A
C731        C941   1.483       .  S
C732        C965   1.480       .  S
C733        C956   1.491       .  S
C734       O1332   1.279       .  A
C734       C1040   1.489       .  S
O735       Ni743   1.931       .  S
O735        C745   1.283       .  A
O736       Ni743   1.930       .  S
O736        C746   1.284       .  A
O737       Ni743   1.906       .  S
O737        C747   1.279       .  A
O738       Ni743   1.912       .  S
O738        C748   1.280       .  A
O739       Ni744   1.914       .  S
O739        C748   1.282       .  A
O740       Ni744   1.916       .  S
O740        C747   1.281       .  A
O741       Ni744   1.911       .  S
O741        C746   1.279       .  A
O742       Ni744   1.913       .  S
O742        C745   1.280       .  A
Ni743      Ni744   2.386       .  S
C745        C917   1.482       .  S
C746        C968   1.481       .  S
C747        C932   1.480       .  S
C748        C989   1.481       .  S
O749       Ni757   1.934       .  S
O749        C759   1.285       .  A
O750       Ni757   1.933       .  S
O750       C1368   1.285       .  A
O751       Ni757   1.918       .  S
O751        C761   1.279       .  A
O752       Ni757   1.915       .  S
O752        C762   1.281       .  A
O753       Ni758   1.937       .  S
O754       Ni758   1.930       .  S
O755       Ni758   1.904       .  S
O755        C760   1.278       .  A
O756       Ni758   1.908       .  S
Ni757     Ni1366   2.386       .  S
C759       O1364   1.278       .  A
C759        C893   1.483       .  S
C760        C905   1.478       .  S
C761       O1362   1.285       .  A
C761        C953   1.484       .  S
C762       O1361   1.286       .  A
C762       C1016   1.496       .  S
O763       Ni771   1.921       .  S
O763        C773   1.281       .  A
O764       Ni771   1.922       .  S
O764        C774   1.283       .  A
O765       Ni771   1.902       .  S
O765        C775   1.278       .  A
O766       Ni771   1.904       .  S
O766        C776   1.280       .  A
O767       Ni772   1.922       .  S
O767        C776   1.280       .  A
O768       Ni772   1.926       .  S
O768        C775   1.283       .  A
O769       Ni772   1.912       .  S
O769        C774   1.280       .  A
O770       Ni772   1.907       .  S
O770        C773   1.280       .  A
Ni771      Ni772   2.388       .  S
C773        C881   1.475       .  S
C774        C908   1.479       .  S
C775        C929   1.470       .  S
C776        C980   1.481       .  S
O777      Ni1393   1.927       .  S
O777       C1395   1.282       .  A
O778       Ni785   1.937       .  S
O778        C788   1.286       .  A
O779       Ni785   1.907       .  S
O779        C789   1.276       .  A
O780       Ni785   1.914       .  S
O780        C790   1.279       .  A
O781       Ni786   1.936       .  S
O781        C790   1.285       .  A
O782       Ni786   1.931       .  S
O782        C789   1.286       .  A
O783       Ni786   1.910       .  S
O783        C788   1.278       .  A
O784       Ni786   1.911       .  S
O784        C787   1.278       .  A
Ni785      Ni786   2.386       .  S
C787       C1184   1.470       .  S
C788        C872   1.482       .  S
C789        C944   1.491       .  S
C790        C857   1.481       .  S
O791       Ni799   1.925       .  S
O791        C801   1.283       .  A
O792       Ni799   1.927       .  S
O792        C802   1.282       .  A
O793       Ni799   1.911       .  S
O793        C803   1.279       .  A
O794       Ni799   1.905       .  S
O794        C804   1.278       .  A
O795       Ni800   1.916       .  S
O795        C804   1.281       .  A
O796       Ni800   1.922       .  S
O796        C803   1.283       .  A
O797       Ni800   1.904       .  S
O797        C802   1.279       .  A
O798       Ni800   1.912       .  S
O798        C801   1.279       .  A
Ni799      Ni800   2.388       .  S
C801       C1112   1.479       .  S
C802        C869   1.478       .  S
C803        C896   1.484       .  S
C804        C845   1.466       .  S
O805       Ni813   1.925       .  S
O805        C815   1.281       .  A
O806       Ni813   1.921       .  S
O806        C816   1.281       .  A
O807       Ni813   1.919       .  S
O807        C817   1.282       .  A
O808       Ni813   1.928       .  S
O808        C818   1.284       .  A
O809       Ni814   1.928       .  S
O809       C1426   1.282       .  A
O810       Ni814   1.930       .  S
O810       C1425   1.283       .  A
O811       Ni814   1.924       .  S
O811       C1424   1.282       .  A
O812        C815   1.283       .  A
Ni814      O1420   1.923       .  S
Ni814     Ni1421   2.383       .  S
C815       C1148   1.487       .  S
C817        C920   1.479       .  S
C818        C860   1.500       .  S
O819       Ni827   1.932       .  S
O819        C829   1.284       .  A
O820       Ni827   1.935       .  S
O820        C830   1.285       .  A
O821       Ni827   1.908       .  S
O821        C831   1.279       .  A
O822       Ni827   1.902       .  S
O822        C832   1.278       .  A
O823       Ni828   1.921       .  S
O823        C832   1.282       .  A
O824       Ni828   1.922       .  S
O824        C831   1.281       .  A
O825       Ni828   1.912       .  S
O825        C830   1.280       .  A
O826       Ni828   1.914       .  S
O826        C829   1.280       .  A
Ni827      Ni828   2.387       .  S
C829       C1088   1.487       .  S
C830        C836   1.489       .  S
C831        C884   1.472       .  S
C832        C848   1.476       .  S
C833       C1424   1.488       .  S
C833        C834   1.407       .  A
C833       C1446   1.415       .  A
C834        C835   1.405       .  A
C834        H843   1.084       .  S
C835        C836   1.415       .  A
C835        S839   1.803       .  S
C836        C837   1.406       .  A
C837       C1446   1.401       .  A
C837       H1452   1.084       .  S
C838        S840   1.805       .  S
S839        H842   1.407       .  S
S840        H841   1.404       .  S
C845        C846   1.400       .  A
C845        C850   1.408       .  A
C846        C847   1.396       .  A
C846        H855   1.084       .  S
C847        C848   1.415       .  A
C847        S851   1.799       .  S
C848        C849   1.405       .  A
C849        C850   1.399       .  A
C849        H856   1.083       .  S
C850        S852   1.806       .  S
S851        H854   1.408       .  S
S852        H853   1.407       .  S
C857        C858   1.400       .  A
C857        C862   1.411       .  A
C859       C1466   1.400       .  A
C859       C1468   1.421       .  A
C859        S863   1.797       .  S
C860        C861   1.411       .  A
C861        C862   1.406       .  A
C861        H868   1.084       .  S
C862        S864   1.801       .  S
S863        H866   1.393       .  S
S864        H865   1.405       .  S
H867       C1466   1.085       .  S
C869        C870   1.400       .  A
C869        C874   1.415       .  A
C870        C871   1.392       .  A
C870        H879   1.083       .  S
C871        C872   1.410       .  A
C871        S875   1.788       .  S
C872        C873   1.406       .  A
C873        C874   1.404       .  A
C873        H880   1.083       .  S
C874        S876   1.799       .  S
S875        H878   1.408       .  S
S876        H877   1.400       .  S
C881        C882   1.400       .  A
C881        C886   1.414       .  A
C882        C883   1.393       .  A
C882        H891   1.085       .  S
C883        C884   1.412   1_545  A
C883        S887   1.799   1_545  S
C884        C885   1.403   1_565  A
C885        C886   1.402       .  A
C885        H892   1.084       .  S
C886        S888   1.799       .  S
S887        H890   1.403       .  S
S888        H889   1.403       .  S
C893        C894   1.404       .  A
C893        C898   1.411       .  A
C894        C895   1.399       .  A
C894        H903   1.084       .  S
C895        C896   1.417       .  A
C895        S899   1.801       .  S
C896        C897   1.403       .  A
C897        C898   1.399       .  A
C897        H904   1.084       .  S
C898        S900   1.790       .  S
S899        H902   1.408       .  S
S900        H901   1.407       .  S
C905        C906   1.404       .  A
C906        C907   1.398       .  A
C906        H915   1.084       .  S
C907        C908   1.414       .  A
C907        S911   1.805       .  S
C908        C909   1.407       .  A
C910       C1513   1.412       .  A
C910       C1517   1.402       .  A
C910        S912   1.803       .  S
S911        H914   1.404       .  S
S912        H913   1.406       .  S
H916       C1517   1.084       .  S
C917        C918   1.406       .  A
C917        C922   1.413       .  A
C918        C919   1.407       .  A
C918        H927   1.083       .  S
C919        C920   1.418   1_545  A
C920        C921   1.403   1_565  A
C921        C922   1.398       .  A
C921        H928   1.085   1_545  S
C922        S924   1.804       .  S
S923       C1527   1.805       .  S
S923        H926   1.403   1_545  S
S924        H925   1.407       .  S
C929        C930   1.402       .  A
C929        C934   1.411       .  A
C930        C931   1.395       .  A
C930        H939   1.081       .  S
C931        C932   1.414       .  A
C931        S935   1.804       .  S
C932        C933   1.408       .  A
C933        C934   1.399       .  A
C933        H940   1.084       .  S
C934        S936   1.805       .  S
S935        H938   1.408       .  S
S936        H937   1.402       .  S
C941        C942   1.400       .  A
C941       C1554   1.411       .  A
C942        C943   1.398       .  A
C942        H951   1.085       .  S
C943       C1552   1.425       .  A
C943        S947   1.807       .  S
C944        C945   1.408       .  A
C945        C946   1.401       .  A
C945        H952   1.084       .  S
C946        S948   1.792       .  S
S947        H950   1.385       .  S
S948        H949   1.406       .  S
C953        C954   1.402       .  A
C953        C958   1.416       .  A
C954        C955   1.402       .  A
C954        H963   1.084       .  S
C955        C956   1.419       .  A
C955        S959   1.804       .  S
C956        C957   1.406       .  A
C957        C958   1.405       .  A
C957        H964   1.084       .  S
C958        S960   1.804       .  S
S959        H962   1.408       .  S
S960        H961   1.407       .  S
C965        C966   1.405       .  A
C965        C970   1.412       .  A
C966        C967   1.401       .  A
C966       H1583   1.084       .  S
C967        C968   1.413       .  A
C967       S1579   1.804       .  S
C968        C969   1.406       .  A
C969        C970   1.402       .  A
C969        H976   1.084       .  S
C970        S972   1.802       .  S
S972        H973   1.406       .  S
H974       S1579   1.406       .  S
C977        C978   1.404       .  A
C977        C982   1.409       .  A
C978        C979   1.405       .  A
C978        H987   1.084       .  S
C979        C980   1.418   1_455  A
C979        S983   1.800   1_455  S
C980        C981   1.401       .  A
C981        C982   1.390   1_655  A
C981        H988   1.085       .  S
C982        S984   1.792       .  S
S983        H986   1.402       .  S
S984        H985   1.407       .  S
C989        C990   1.404       .  A
C989        C994   1.416       .  A
C990        C991   1.397       .  A
C990        H999   1.084       .  S
C991        C992   1.411       .  A
C991        S995   1.793       .  S
C992        C993   1.404       .  A
C993        C994   1.399       .  A
S995        H998   1.406       .  S
S996       C1602   1.804       .  S
S996       H1605   1.408       .  S
H1000      C1601   1.084       .  S
C1001      C1312   1.480       .  S
C1001      C1002   1.405       .  A
C1001      C1006   1.415       .  A
C1002      C1003   1.397       .  A
C1002      H1619   1.084       .  S
C1003      C1004   1.412       .  A
C1003      S1007   1.804       .  S
C1004      C1005   1.403       .  A
C1005      C1006   1.402       .  A
C1005      H1012   1.084       .  S
C1006      S1008   1.798       .  S
S1007      H1010   1.406       .  S
S1008      H1009   1.399       .  S
C1013      C1014   1.401       .  A
C1013      C1018   1.415       .  A
C1014      C1015   1.404       .  A
C1014      H1023   1.084       .  S
C1015      C1016   1.416   1_455  A
C1015      S1019   1.789       .  S
C1016      C1017   1.407   1_655  A
C1017      C1018   1.401       .  A
C1017      H1024   1.084   1_455  S
C1018      S1020   1.805       .  S
S1019      H1022   1.407   1_455  S
S1020      H1021   1.407       .  S
C1025      C1026   1.412       .  A
C1025      C1030   1.424       .  A
C1026      C1027   1.404       .  A
C1026      H1035   1.084       .  S
C1027      C1028   1.409       .  A
C1027      S1031   1.800       .  S
C1028      C1029   1.399       .  A
C1029      C1030   1.399       .  A
C1029      H1036   1.085       .  S
C1030      S1640   1.797       .  S
S1031      H1034   1.405       .  S
S1032      H1033   1.389       .  S
C1037      C1038   1.404       .  A
C1038      H1047   1.084       .  S
C1039      C1646   1.404       .  A
C1039      C1040   1.416       .  A
C1039      S1651   1.791       .  S
C1040      C1041   1.405       .  A
C1041      C1042   1.394       .  A
C1041      H1048   1.084       .  S
C1042      C1645   1.410       .  A
C1042      S1044   1.797       .  S
S1044      H1653   1.407       .  S
H1046      S1651   1.406       .  S
C1049      C1050   1.402       .  A
C1050      C1051   1.399       .  A
C1050      H1059   1.085       .  S
C1051      C1052   1.419       .  A
C1051      S1055   1.798       .  S
C1053      C1660   1.410       .  A
C1053      C1054   1.398       .  A
C1053      H1060   1.084       .  S
C1054      C1657   1.408       .  A
C1054      S1056   1.801       .  S
S1055      H1058   1.393       .  S
S1056      H1057   1.407       .  S
C1061      C1062   1.406       .  A
C1061      C1066   1.413       .  A
C1062      C1063   1.403       .  A
C1062      H1071   1.084       .  S
C1063      C1064   1.413       .  A
C1063      S1067   1.797       .  S
C1064      C1065   1.405       .  A
C1065      C1066   1.399       .  A
C1065      H1072   1.083       .  S
C1066      S1068   1.804       .  S
S1067      H1070   1.406       .  S
S1068      H1069   1.407       .  S
C1073      C1074   1.410       .  A
C1073      C1078   1.425       .  A
C1074      C1075   1.400   1_565  A
C1074      H1083   1.084       .  S
C1075      C1076   1.408       .  A
C1075      S1079   1.804       .  S
C1076      C1077   1.402       .  A
C1077      C1078   1.406   1_545  A
C1077      H1084   1.085       .  S
C1078      S1080   1.804       .  S
S1079      H1082   1.406       .  S
S1080      H1081   1.389       .  S
C1085      C1086   1.400       .  A
C1085      C1090   1.411       .  A
C1086      C1087   1.396       .  A
C1086      H1095   1.085       .  S
C1087      C1088   1.416   1_455  A
C1087      S1091   1.799   1_455  S
C1088      C1089   1.408       .  A
C1089      C1090   1.405   1_655  A
C1089      H1096   1.081       .  S
C1090      S1092   1.804       .  S
S1091      H1094   1.404       .  S
S1092      H1093   1.406       .  S
C1097      C1098   1.403       .  A
C1097      C1102   1.414       .  A
C1098      C1099   1.402       .  A
C1098      H1715   1.083       .  S
C1099      C1100   1.420       .  A
C1099      S1711   1.809       .  S
C1100      C1101   1.406       .  A
C1101      C1102   1.405       .  A
C1101      H1108   1.084       .  S
C1102      S1104   1.791       .  S
S1103      H1106   1.407       .  S
S1104      H1105   1.406       .  S
C1109      C1110   1.408       .  A
C1109      C1114   1.417       .  A
C1110      C1111   1.398       .  A
C1110      H1119   1.084       .  S
C1111      C1112   1.412   1_455  A
C1111      S1115   1.804       .  S
C1112      C1113   1.401   1_655  A
C1113      C1114   1.406       .  A
C1113      H1120   1.083   1_455  S
C1114      S1116   1.797       .  S
S1115      H1118   1.407   1_455  S
S1116      H1117   1.407       .  S
C1121      C1122   1.409       .  A
C1122      C1123   1.405       .  A
C1122      H1131   1.084       .  S
C1123      C1124   1.412       .  A
C1123      S1127   1.800       .  S
C1125      C1732   1.410       .  A
C1125      C1126   1.407       .  A
C1125      H1132   1.084       .  S
C1126      C1729   1.413       .  A
C1126      S1128   1.800       .  S
S1127      H1130   1.404       .  S
S1128      H1129   1.403       .  S
C1133      C1134   1.398       .  A
C1133      C1138   1.410       .  A
C1134      C1135   1.397   1_565  A
C1134      H1143   1.085       .  S
C1135      C1136   1.414       .  A
C1135      S1139   1.790       .  S
C1136      C1137   1.406       .  A
C1137      C1138   1.399   1_545  A
S1139      H1142   1.406       .  S
S1140      C1746   1.803       .  S
S1140      H1749   1.405       .  S
H1144      C1745   1.084       .  S
C1145      C1146   1.404       .  A
C1145      C1150   1.418       .  A
C1146      C1147   1.395       .  A
C1146      H1155   1.084       .  S
C1147      C1148   1.411       .  A
C1147      S1151   1.797       .  S
C1148      C1149   1.407       .  A
C1149      C1150   1.408       .  A
C1149      H1156   1.084       .  S
C1150      S1152   1.802       .  S
S1151      H1154   1.407       .  S
S1152      H1153   1.407       .  S
C1157      C1158   1.405       .  A
C1157      C1162   1.416       .  A
C1158      C1159   1.400       .  A
C1158      H1167   1.084       .  S
C1159      C1160   1.411       .  A
C1159      S1163   1.792       .  S
C1160      C1161   1.397       .  A
C1161      C1162   1.394       .  A
C1161      H1168   1.085       .  S
C1162      S1164   1.791       .  S
S1163      H1166   1.407       .  S
S1164      H1165   1.406       .  S
C1169      C1778   1.404       .  A
C1169      C1782   1.413       .  A
C1170      C1171   1.404       .  A
C1171      C1172   1.417       .  A
C1171      S1175   1.800       .  S
C1172      C1173   1.406       .  A
C1173      C1174   1.397       .  A
C1173      H1180   1.084       .  S
C1174      S1176   1.804       .  S
S1175      H1178   1.403       .  S
H1177      S1784   1.407       .  S
H1179      C1778   1.084       .  S
C1181      C1182   1.404       .  A
C1181      C1794   1.413       .  A
C1182      C1183   1.405       .  A
C1182      H1191   1.084       .  S
C1183      C1792   1.413       .  A
C1183      S1187   1.803       .  S
C1184      C1185   1.396       .  A
C1185      C1186   1.400       .  A
C1185      H1192   1.083       .  S
C1186      S1188   1.798       .  S
S1187      H1190   1.406       .  S
S1188      H1189   1.406       .  S
C1193      C1194   1.400       .  A
C1193      C1198   1.415       .  A
C1194      C1195   1.403       .  A
C1194      H1203   1.084       .  S
C1195      C1196   1.421       .  A
C1195      S1199   1.802       .  S
C1196      C1197   1.405       .  A
C1197      C1198   1.402       .  A
C1197      H1204   1.084       .  S
C1198      S1200   1.803       .  S
S1199      H1202   1.404       .  S
S1200      H1201   1.404       .  S
C1205      C1206   1.400       .  A
C1205      C1210   1.419       .  A
C1206      C1207   1.393       .  A
C1206      H1823   1.082       .  S
C1207      C1208   1.408       .  A
C1207      S1819   1.790       .  S
C1208      C1209   1.399       .  A
C1209      C1210   1.401       .  A
C1209      H1216   1.084       .  S
C1210      S1212   1.798       .  S
S1212      H1213   1.397       .  S
H1214      S1819   1.404       .  S
O1217     Ni1225   1.920       .  S
O1218     Ni1833   1.911       .  S
O1218      C1228   1.280       .  A
O1219     Ni1833   1.919       .  S
O1219      C1229   1.280       .  A
O1220     Ni1225   1.919       .  S
O1221     Ni1226   1.937       .  S
O1221      C1230   1.284       .  A
O1222     Ni1226   1.933       .  S
O1222      C1229   1.286       .  A
O1223     Ni1226   1.920       .  S
O1223      C1228   1.280       .  A
O1224     Ni1226   1.916       .  S
O1224      C1227   1.281       .  A
Ni1226    Ni1833   2.385       .  S
C1227      O1825   1.281       .  A
C1227      C1777   1.477       .  S
C1228      C1813   1.477       .  S
C1229      C1804   1.495       .  S
C1230      O1828   1.281       .  A
C1230      C1789   1.484       .  S
O1231     Ni1239   1.912       .  S
O1231      C1241   1.279       .  A
O1232     Ni1239   1.912       .  S
O1232      C1242   1.278       .  A
O1233     Ni1239   1.916       .  S
O1233      C1243   1.281       .  A
O1234     Ni1239   1.910       .  S
O1234      C1244   1.280       .  A
O1235     Ni1240   1.934       .  S
O1235      C1244   1.284       .  A
O1236     Ni1240   1.924       .  S
O1236      C1243   1.283       .  A
O1237     Ni1240   1.919       .  S
O1237      C1242   1.281       .  A
O1238     Ni1240   1.915       .  S
O1238      C1241   1.281       .  A
Ni1239    Ni1240   2.387       .  S
C1241      C1741   1.470       .  S
C1242      C1816   1.474       .  S
C1243      C1765   1.487       .  S
C1244      C1753   1.488       .  S
O1245     Ni1253   1.942       .  S
O1245      C1255   1.286       .  A
O1246     Ni1253   1.944       .  S
O1246      C1864   1.286       .  A
O1247     Ni1253   1.914       .  S
O1247      C1257   1.279       .  A
O1248     Ni1253   1.911       .  S
O1248      C1258   1.281       .  A
O1249     Ni1254   1.937       .  S
O1250     Ni1254   1.934       .  S
O1251     Ni1254   1.909       .  S
O1251      C1256   1.278       .  A
O1252     Ni1254   1.907       .  S
Ni1253    Ni1862   2.383       .  S
C1255      O1860   1.279       .  A
C1255      C1705   1.491       .  S
C1256      C1729   1.491       .  S
C1257      O1858   1.285       .  A
C1257      C1801   1.484       .  S
C1258      O1857   1.285       .  A
C1258      C1717   1.496       .  S
O1259     Ni1267   1.943       .  S
O1259      C1269   1.286       .  A
O1260     Ni1267   1.947       .  S
O1260      C1270   1.287       .  A
O1261     Ni1267   1.916       .  S
O1261      C1271   1.278       .  A
O1262     Ni1267   1.911       .  S
O1262      C1272   1.280       .  A
O1263     Ni1268   1.921       .  S
O1263      C1272   1.281       .  A
O1264     Ni1268   1.924       .  S
O1264      C1271   1.284       .  A
O1265     Ni1268   1.911       .  S
O1265      C1270   1.278       .  A
O1266     Ni1268   1.911       .  S
O1266      C1269   1.279       .  A
Ni1267    Ni1268   2.386       .  S
C1269      C1681   1.493       .  S
C1270      C1732   1.492       .  S
C1271      C1768   1.477       .  S
C1272      C1693   1.473       .  S
O1273     Ni1889   1.926       .  S
O1273      C1891   1.282       .  A
O1274     Ni1281   1.917       .  S
O1274      C1284   1.281       .  A
O1275     Ni1281   1.906       .  S
O1275      C1285   1.280       .  A
O1276     Ni1281   1.906       .  S
O1276      C1286   1.280       .  A
O1277     Ni1282   1.926       .  S
O1277      C1286   1.281       .  A
O1278     Ni1282   1.927       .  S
O1278      C1285   1.282       .  A
O1279     Ni1282   1.914       .  S
O1279      C1284   1.280       .  A
O1280     Ni1282   1.912       .  S
O1280      C1283   1.280       .  A
Ni1281    Ni1282   2.384       .  S
C1283      C1645   1.478       .  S
C1284      C1669   1.477       .  S
C1285      C1780   1.488       .  S
C1286      C1660   1.489       .  S
O1287     Ni1295   1.935       .  S
O1287      C1297   1.285       .  A
O1288     Ni1295   1.936       .  S
O1288      C1298   1.285       .  A
O1289     Ni1295   1.906       .  S
O1289      C1299   1.277       .  A
O1290     Ni1295   1.909       .  S
O1290      C1300   1.278       .  A
O1291     Ni1296   1.937       .  S
O1291      C1300   1.285       .  A
O1292     Ni1296   1.940       .  S
O1292      C1299   1.287       .  A
O1293     Ni1296   1.901       .  S
O1293      C1298   1.277       .  A
O1294     Ni1296   1.904       .  S
O1294      C1297   1.277       .  A
Ni1295    Ni1296   2.386       .  S
C1297      C1621   1.480       .  S
C1298      C1672   1.478       .  S
C1299      C1708   1.493       .  S
C1300      C1636   1.481       .  S
O1301     Ni1309   1.925       .  S
O1301      C1311   1.283       .  A
O1302     Ni1309   1.927       .  S
O1302      C1312   1.282       .  A
O1303     Ni1309   1.906       .  S
O1303      C1313   1.279       .  A
O1304     Ni1309   1.903       .  S
O1304      C1314   1.278       .  A
O1305     Ni1310   1.926       .  S
O1305      C1922   1.283       .  A
O1306     Ni1310   1.928       .  S
O1306      C1921   1.283       .  A
O1307     Ni1310   1.910       .  S
O1307      C1920   1.280       .  A
O1308     Ni1310   1.912       .  S
O1308      C1919   1.279       .  A
Ni1310    Ni1917   2.387       .  S
C1311      C1600   1.478       .  S
C1313      C1744   1.482       .  S
C1314      C1657   1.473       .  S
O1315     Ni1323   1.919       .  S
O1315      C1325   1.279       .  A
O1316     Ni1323   1.914       .  S
O1316      C1326   1.280       .  A
O1317     Ni1323   1.922       .  S
O1317      C1327   1.282       .  A
O1318     Ni1323   1.928       .  S
O1318      C1328   1.285       .  A
O1319     Ni1324   1.922       .  S
O1319      C1328   1.279       .  A
O1320     Ni1324   1.926       .  S
O1320      C1327   1.282       .  A
O1321     Ni1324   1.922       .  S
O1321      C1326   1.281       .  A
O1322     Ni1324   1.924       .  S
O1322      C1325   1.283       .  A
Ni1323    Ni1324   2.384       .  S
C1325      C1585   1.477       .  S
C1326      C1612   1.477       .  S
C1327      C1684   1.481       .  S
C1328      C1633   1.501       .  S
O1329     Ni1337   1.936       .  S
O1330     Ni1945   1.938       .  S
O1330      C1340   1.286       .  A
O1331     Ni1945   1.909       .  S
O1331      C1341   1.278       .  A
O1332     Ni1337   1.902       .  S
O1333     Ni1338   1.942       .  S
O1333      C1342   1.286       .  A
O1334     Ni1338   1.936       .  S
O1334      C1341   1.286       .  A
O1335     Ni1338   1.906       .  S
O1335      C1340   1.277       .  A
O1336     Ni1338   1.905       .  S
O1336      C1339   1.278       .  A
Ni1338    Ni1945   2.384       .  S
C1339      O1937   1.285       .  A
C1339      C1549   1.486       .  S
C1340      C1573   1.482       .  S
C1341      C1564   1.490       .  S
C1342      O1940   1.279       .  A
C1342      C1648   1.491       .  S
O1343     Ni1351   1.934       .  S
O1343      C1353   1.284       .  A
O1344     Ni1351   1.934       .  S
O1344      C1354   1.285       .  A
O1345     Ni1351   1.905       .  S
O1345      C1355   1.279       .  A
O1346     Ni1351   1.909       .  S
O1346      C1356   1.279       .  A
O1347     Ni1352   1.915       .  S
O1347      C1356   1.282       .  A
O1348     Ni1352   1.917       .  S
O1348      C1355   1.282       .  A
O1349     Ni1352   1.910       .  S
O1349      C1354   1.278       .  A
O1350     Ni1352   1.912       .  S
O1350      C1353   1.280       .  A
Ni1351    Ni1352   2.386       .  S
C1353      C1525   1.486       .  S
C1354      C1576   1.483       .  S
C1355      C1540   1.479       .  S
C1356      C1597   1.479       .  S
O1357     Ni1365   1.932       .  S
O1357      C1367   1.284       .  A
O1358     Ni1365   1.931       .  S
O1358      C1976   1.284       .  A
O1359     Ni1365   1.918       .  S
O1359      C1369   1.280       .  A
O1360     Ni1365   1.915       .  S
O1360      C1370   1.281       .  A
O1361     Ni1366   1.940       .  S
O1362     Ni1366   1.933       .  S
O1363     Ni1366   1.900       .  S
O1363      C1368   1.277       .  A
O1364     Ni1366   1.906       .  S
Ni1365    Ni1974   2.386       .  S
C1367      O1972   1.279       .  A
C1367      C1501   1.483       .  S
C1368      C1513   1.477       .  S
C1369      O1970   1.284       .  A
C1369      C1561   1.482       .  S
C1370      O1969   1.285       .  A
C1370      C1624   1.494       .  S
O1371     Ni1379   1.922       .  S
O1371      C1381   1.281       .  A
O1372     Ni1379   1.922       .  S
O1372      C1382   1.282       .  A
O1373     Ni1379   1.904       .  S
O1373      C1383   1.278       .  A
O1374     Ni1379   1.907       .  S
O1374      C1384   1.281       .  A
O1375     Ni1380   1.922       .  S
O1375      C1384   1.280       .  A
O1376     Ni1380   1.924       .  S
O1376      C1383   1.282       .  A
O1377     Ni1380   1.913       .  S
O1377      C1382   1.280       .  A
O1378     Ni1380   1.909       .  S
O1378      C1381   1.280       .  A
Ni1379    Ni1380   2.389       .  S
C1381      C1489   1.476       .  S
C1382      C1516   1.478       .  S
C1383      C1537   1.470       .  S
C1384      C1588   1.478       .  S
O1385     Ni2001   1.929       .  S
O1385      C2003   1.283       .  A
O1386     Ni1393   1.937       .  S
O1386      C1396   1.286       .  A
O1387     Ni1393   1.906       .  S
O1387      C1397   1.276       .  A
O1388     Ni1393   1.912       .  S
O1388      C1398   1.279       .  A
O1389     Ni1394   1.937       .  S
O1389      C1398   1.285       .  A
O1390     Ni1394   1.933       .  S
O1390      C1397   1.287       .  A
O1391     Ni1394   1.910       .  S
O1391      C1396   1.277       .  A
O1392     Ni1394   1.911       .  S
O1392      C1395   1.278       .  A
Ni1393    Ni1394   2.386       .  S
C1395      C1792   1.470       .  S
C1396      C1480   1.481       .  S
C1397      C1552   1.492       .  S
C1398      C1465   1.481       .  S
O1399     Ni1407   1.928       .  S
O1399      C1409   1.284       .  A
O1400     Ni1407   1.928       .  S
O1400      C1410   1.282       .  A
O1401     Ni1407   1.912       .  S
O1401      C1411   1.280       .  A
O1402     Ni1407   1.908       .  S
O1402      C1412   1.278       .  A
O1403     Ni1408   1.917       .  S
O1403      C1412   1.281       .  A
O1404     Ni1408   1.923       .  S
O1404      C1411   1.283       .  A
O1405     Ni1408   1.903       .  S
O1405      C1410   1.279       .  A
O1406     Ni1408   1.910       .  S
O1406      C1409   1.279       .  A
Ni1407    Ni1408   2.387       .  S
C1409      C1720   1.482       .  S
C1410      C1477   1.476       .  S
C1411      C1504   1.483       .  S
C1412      C1453   1.470       .  S
O1413     Ni1421   1.927       .  S
O1413      C1423   1.282       .  A
O1414     Ni1421   1.925       .  S
O1414      C1424   1.283       .  A
O1415     Ni1421   1.917       .  S
O1415      C1425   1.281       .  A
O1416     Ni1421   1.925       .  S
O1416      C1426   1.283       .  A
O1417     Ni1422   1.929       .  S
O1417      C2034   1.282       .  A
O1418     Ni1422   1.931       .  S
O1418      C2033   1.282       .  A
O1419     Ni1422   1.925       .  S
O1419      C2032   1.282       .  A
O1420      C1423   1.282       .  A
Ni1422     O2028   1.925       .  S
Ni1422    Ni2029   2.383       .  S
C1423      C1756   1.487       .  S
C1425      C1528   1.481       .  S
C1426      C1468   1.500       .  S
O1427     Ni1435   1.928       .  S
O1427      C1437   1.284       .  A
O1428     Ni1435   1.932       .  S
O1428      C1438   1.284       .  A
O1429     Ni1435   1.909       .  S
O1429      C1439   1.279       .  A
O1430     Ni1435   1.904       .  S
O1430      C1440   1.279       .  A
O1431     Ni1436   1.923       .  S
O1431      C1440   1.282       .  A
O1432     Ni1436   1.923       .  S
O1432      C1439   1.281       .  A
O1433     Ni1436   1.913       .  S
O1433      C1438   1.280       .  A
O1434     Ni1436   1.914       .  S
O1434      C1437   1.280       .  A
Ni1435    Ni1436   2.387       .  S
C1437      C1696   1.485       .  S
C1438      C1444   1.487       .  S
C1439      C1492   1.474       .  S
C1440      C1456   1.479       .  S
C1441      C2032   1.486       .  S
C1441      C1442   1.407       .  A
C1441      C2054   1.415       .  A
C1442      C1443   1.405       .  A
C1442      H1451   1.084       .  S
C1443      C1444   1.415       .  A
C1443      S1447   1.803       .  S
C1444      C1445   1.405       .  A
C1445      C2054   1.401       .  A
C1445      H2060   1.084       .  S
C1446      S1448   1.805       .  S
S1447      H1450   1.407       .  S
S1448      H1449   1.404       .  S
C1453      C1454   1.401       .  A
C1453      C1458   1.409       .  A
C1454      C1455   1.398       .  A
C1454      H1463   1.084       .  S
C1455      C1456   1.416       .  A
C1455      S1459   1.800       .  S
C1456      C1457   1.405       .  A
C1457      C1458   1.399       .  A
C1457      H1464   1.083       .  S
C1458      S1460   1.806       .  S
S1459      H1462   1.408       .  S
S1460      H1461   1.407       .  S
C1465      C1466   1.399       .  A
C1465      C1470   1.411       .  A
C1467      C2074   1.401       .  A
C1467      C2076   1.421       .  A
C1467      S1471   1.797       .  S
C1468      C1469   1.412       .  A
C1469      C1470   1.405       .  A
C1469      H1476   1.084       .  S
C1470      S1472   1.801       .  S
S1471      H1474   1.394       .  S
S1472      H1473   1.405       .  S
H1475      C2074   1.085       .  S
C1477      C1478   1.400       .  A
C1477      C1482   1.414       .  A
C1478      C1479   1.392       .  A
C1478      H1487   1.082       .  S
C1479      C1480   1.410       .  A
C1479      S1483   1.789       .  S
C1480      C1481   1.406       .  A
C1481      C1482   1.404       .  A
C1481      H1488   1.082       .  S
C1482      S1484   1.800       .  S
S1483      H1486   1.407       .  S
S1484      H1485   1.399       .  S
C1489      C1490   1.400       .  A
C1489      C1494   1.415       .  A
C1490      C1491   1.393       .  A
C1490      H1499   1.084       .  S
C1491      C1492   1.412   1_545  A
C1491      S1495   1.799   1_545  S
C1492      C1493   1.404   1_565  A
C1493      C1494   1.403       .  A
C1493      H1500   1.084       .  S
C1494      S1496   1.800       .  S
S1495      H1498   1.403       .  S
S1496      H1497   1.403       .  S
C1501      C1502   1.404       .  A
C1501      C1506   1.412       .  A
C1502      C1503   1.399       .  A
C1502      H1511   1.084       .  S
C1503      C1504   1.416       .  A
C1503      S1507   1.801       .  S
C1504      C1505   1.402       .  A
C1505      C1506   1.399       .  A
C1505      H1512   1.084       .  S
C1506      S1508   1.789       .  S
S1507      H1510   1.408       .  S
S1508      H1509   1.407       .  S
C1513      C1514   1.404       .  A
C1514      C1515   1.397       .  A
C1514      H1523   1.084       .  S
C1515      C1516   1.414       .  A
C1515      S1519   1.805       .  S
C1516      C1517   1.407       .  A
C1518      C2121   1.413       .  A
C1518      C2125   1.402       .  A
C1518      S1520   1.803       .  S
S1519      H1522   1.403       .  S
S1520      H1521   1.406       .  S
H1524      C2125   1.084       .  S
C1525      C1526   1.406       .  A
C1525      C1530   1.415       .  A
C1526      C1527   1.407       .  A
C1526      H1535   1.084       .  S
C1527      C1528   1.416   1_545  A
C1528      C1529   1.403   1_565  A
C1529      C1530   1.398       .  A
C1529      H1536   1.085   1_545  S
C1530      S1532   1.805       .  S
S1531      C2135   1.807       .  S
S1531      H1534   1.400   1_545  S
S1532      H1533   1.407       .  S
C1537      C1538   1.402       .  A
C1537      C1542   1.411       .  A
C1538      C1539   1.395       .  A
C1538      H1547   1.081       .  S
C1539      C1540   1.413       .  A
C1539      S1543   1.804       .  S
C1540      C1541   1.408       .  A
C1541      C1542   1.399       .  A
C1541      H1548   1.084       .  S
C1542      S1544   1.806       .  S
S1543      H1546   1.408       .  S
S1544      H1545   1.402       .  S
C1549      C1550   1.401       .  A
C1549      C2162   1.411       .  A
C1550      C1551   1.399       .  A
C1550      H1559   1.085       .  S
C1551      C2160   1.425       .  A
C1551      S1555   1.806       .  S
C1552      C1553   1.408       .  A
C1553      C1554   1.402       .  A
C1553      H1560   1.084       .  S
C1554      S1556   1.795       .  S
S1555      H1558   1.385       .  S
S1556      H1557   1.406       .  S
C1561      C1562   1.402       .  A
C1561      C1566   1.415       .  A
C1562      C1563   1.402       .  A
C1562      H1571   1.084       .  S
C1563      C1564   1.420       .  A
C1563      S1567   1.805       .  S
C1564      C1565   1.405       .  A
C1565      C1566   1.404       .  A
C1565      H1572   1.084       .  S
C1566      S1568   1.803       .  S
S1567      H1570   1.408       .  S
S1568      H1569   1.406       .  S
C1573      C1574   1.406       .  A
C1573      C1578   1.412       .  A
C1574      C1575   1.401       .  A
C1574      H2191   1.084       .  S
C1575      C1576   1.413       .  A
C1575      S2187   1.804       .  S
C1576      C1577   1.407       .  A
C1577      C1578   1.402       .  A
C1577      H1584   1.084       .  S
C1578      S1580   1.803       .  S
S1580      H1581   1.406       .  S
H1582      S2187   1.406       .  S
C1585      C1586   1.405       .  A
C1585      C1590   1.409       .  A
C1586      C1587   1.405   1_455  A
C1586      H1595   1.083       .  S
C1587      C1588   1.416       .  A
C1587      S1591   1.800       .  S
C1588      C1589   1.400       .  A
C1589      C1590   1.391   1_655  A
C1589      H1596   1.085       .  S
C1590      S1592   1.792       .  S
S1591      H1594   1.404       .  S
S1592      H1593   1.406       .  S
C1597      C1598   1.402       .  A
C1597      C1602   1.416       .  A
C1598      C1599   1.395       .  A
C1598      H1607   1.084       .  S
C1599      C1600   1.410       .  A
C1599      S1603   1.791       .  S
C1600      C1601   1.404       .  A
C1601      C1602   1.399       .  A
S1603      H1606   1.407       .  S
S1604      C2210   1.803       .  S
S1604      H2213   1.408       .  S
H1608      C2209   1.084       .  S
C1609      C1920   1.482       .  S
C1609      C1610   1.405       .  A
C1609      C1614   1.415       .  A
C1610      C1611   1.398       .  A
C1610      H2227   1.084       .  S
C1611      C1612   1.413       .  A
C1611      S1615   1.804       .  S
C1612      C1613   1.404       .  A
C1613      C1614   1.403       .  A
C1613      H1620   1.084       .  S
C1614      S1616   1.798       .  S
S1615      H1618   1.406       .  S
S1616      H1617   1.401       .  S
C1621      C1622   1.401       .  A
C1621      C1626   1.414       .  A
C1622      C1623   1.403       .  A
C1622      H1631   1.084       .  S
C1623      C1624   1.417   1_455  A
C1623      S1627   1.787       .  S
C1624      C1625   1.406   1_655  A
C1625      C1626   1.399       .  A
C1625      H1632   1.084   1_455  S
C1626      S1628   1.805       .  S
S1627      H1630   1.407   1_455  S
S1628      H1629   1.407       .  S
C1633      C1634   1.412       .  A
C1633      C1638   1.424       .  A
C1634      C1635   1.404       .  A
C1634      H1643   1.084       .  S
C1635      C1636   1.409       .  A
C1635      S1639   1.800       .  S
C1636      C1637   1.400       .  A
C1637      C1638   1.400       .  A
C1637      H1644   1.085       .  S
C1638      S2248   1.799       .  S
S1639      H1642   1.406       .  S
S1640      H1641   1.388       .  S
C1645      C1646   1.403       .  A
C1646      H1655   1.083       .  S
C1647      C2254   1.410       .  A
C1647      C1648   1.417       .  A
C1647      S2259   1.799       .  S
C1648      C1649   1.406       .  A
C1649      C1650   1.393       .  A
C1649      H1656   1.084       .  S
C1650      C2253   1.410       .  A
C1650      S1652   1.799       .  S
S1652      H2261   1.407       .  S
H1654      S2259   1.407       .  S
C1657      C1658   1.402       .  A
C1658      C1659   1.397       .  A
C1658      H1667   1.085       .  S
C1659      C1660   1.418       .  A
C1659      S1663   1.798       .  S
C1661      C2268   1.411       .  A
C1661      C1662   1.399       .  A
C1661      H1668   1.084       .  S
C1662      C2265   1.409       .  A
C1662      S1664   1.801       .  S
S1663      H1666   1.393       .  S
S1664      H1665   1.407       .  S
C1669      C1670   1.405       .  A
C1669      C1674   1.413       .  A
C1670      C1671   1.401       .  A
C1670      H1679   1.084       .  S
C1671      C1672   1.412       .  A
C1671      S1675   1.798       .  S
C1672      C1673   1.404       .  A
C1673      C1674   1.396       .  A
C1673      H1680   1.083       .  S
C1674      S1676   1.804       .  S
S1675      H1678   1.406       .  S
S1676      H1677   1.407       .  S
C1681      C1682   1.408       .  A
C1681      C1686   1.416       .  A
C1682      C1683   1.402   1_565  A
C1682      H1691   1.084       .  S
C1683      C1684   1.411       .  A
C1683      S1687   1.802       .  S
C1684      C1685   1.403       .  A
C1685      C1686   1.404   1_545  A
C1685      H1692   1.084       .  S
C1686      S1688   1.793       .  S
S1687      H1690   1.406       .  S
S1688      H1689   1.401       .  S
C1693      C1694   1.401       .  A
C1693      C1698   1.411       .  A
C1694      C1695   1.395       .  A
C1694      H1703   1.085       .  S
C1695      C1696   1.414   1_455  A
C1695      S1699   1.799   1_455  S
C1696      C1697   1.407       .  A
C1697      C1698   1.404   1_655  A
C1697      H1704   1.081       .  S
C1698      S1700   1.804       .  S
S1699      H1702   1.405       .  S
S1700      H1701   1.406       .  S
C1705      C1706   1.403       .  A
C1705      C1710   1.413       .  A
C1706      C1707   1.403       .  A
C1706      H2323   1.083       .  S
C1707      C1708   1.420       .  A
C1707      S2319   1.809       .  S
C1708      C1709   1.405       .  A
C1709      C1710   1.404       .  A
C1709      H1716   1.084       .  S
C1710      S1712   1.790       .  S
S1711      H1714   1.407       .  S
S1712      H1713   1.406       .  S
C1717      C1718   1.409       .  A
C1717      C1722   1.417       .  A
C1718      C1719   1.402       .  A
C1718      H1727   1.083       .  S
C1719      C1720   1.412   1_455  A
C1719      S1723   1.810       .  S
C1720      C1721   1.401   1_655  A
C1721      C1722   1.406       .  A
C1721      H1728   1.083   1_455  S
C1722      S1724   1.798       .  S
S1723      H1726   1.407       .  S
S1724      H1725   1.407       .  S
C1729      C1730   1.409       .  A
C1730      C1731   1.404       .  A
C1730      H1739   1.084       .  S
C1731      C1732   1.413       .  A
C1731      S1735   1.800       .  S
C1733      C2340   1.409       .  A
C1733      C1734   1.406       .  A
C1733      H1740   1.084       .  S
C1734      C2337   1.413       .  A
C1734      S1736   1.800       .  S
S1735      H1738   1.401       .  S
S1736      H1737   1.402       .  S
C1741      C1742   1.399       .  A
C1741      C1746   1.411       .  A
C1742      C1743   1.397   1_565  A
C1742      H1751   1.084       .  S
C1743      C1744   1.415       .  A
C1743      S1747   1.792       .  S
C1744      C1745   1.406       .  A
C1745      C1746   1.398   1_545  A
S1747      H1750   1.406       .  S
S1748      C2354   1.802       .  S
S1748      H2357   1.405       .  S
H1752      C2353   1.084       .  S
C1753      C1754   1.404       .  A
C1753      C1758   1.417       .  A
C1754      C1755   1.396       .  A
C1754      H1763   1.084       .  S
C1755      C1756   1.412       .  A
C1755      S1759   1.796       .  S
C1756      C1757   1.407       .  A
C1757      C1758   1.408       .  A
C1757      H1764   1.084       .  S
C1758      S1760   1.802       .  S
S1759      H1762   1.406       .  S
S1760      H1761   1.407       .  S
C1765      C1766   1.405       .  A
C1765      C1770   1.415       .  A
C1766      C1767   1.405       .  A
C1766      H1775   1.082       .  S
C1767      C1768   1.413       .  A
C1767      S1771   1.798       .  S
C1768      C1769   1.398       .  A
C1769      C1770   1.394       .  A
C1769      H1776   1.085       .  S
C1770      S1772   1.791       .  S
S1771      H1774   1.407       .  S
S1772      H1773   1.407       .  S
C1777      C2386   1.404       .  A
C1777      C2390   1.412       .  A
C1778      C1779   1.403       .  A
C1779      C1780   1.417       .  A
C1779      S1783   1.800       .  S
C1780      C1781   1.407       .  A
C1781      C1782   1.396       .  A
C1781      H1788   1.084       .  S
C1782      S1784   1.805       .  S
S1783      H1786   1.403       .  S
H1785      S2392   1.407       .  S
H1787      C2386   1.084       .  S
C1789      C1790   1.404       .  A
C1789      C2402   1.413       .  A
C1790      C1791   1.407       .  A
C1790      H1799   1.084       .  S
C1791      C2400   1.414       .  A
C1791      S1795   1.804       .  S
C1792      C1793   1.396       .  A
C1793      C1794   1.400       .  A
C1793      H1800   1.083       .  S
C1794      S1796   1.797       .  S
S1795      H1798   1.406       .  S
S1796      H1797   1.406       .  S
C1801      C1802   1.401       .  A
C1801      C1806   1.415       .  A
C1802      C1803   1.404       .  A
C1802      H1811   1.084       .  S
C1803      C1804   1.422       .  A
C1803      S1807   1.802       .  S
C1804      C1805   1.405       .  A
C1805      C1806   1.402       .  A
C1805      H1812   1.084       .  S
C1806      S1808   1.803       .  S
S1807      H1810   1.403       .  S
S1808      H1809   1.404       .  S
C1813      C1814   1.400       .  A
C1813      C1818   1.418       .  A
C1814      C1815   1.392       .  A
C1814      H2431   1.082       .  S
C1815      C1816   1.408       .  A
C1815      S2427   1.788       .  S
C1816      C1817   1.399       .  A
C1817      C1818   1.402       .  A
C1817      H1824   1.084       .  S
C1818      S1820   1.796       .  S
S1820      H1821   1.397       .  S
H1822      S2427   1.405       .  S
O1825     Ni1833   1.920       .  S
O1826      C1836   1.281       .  A
O1827      C1837   1.280   1_554  A
O1828     Ni1833   1.921       .  S
O1829     Ni1834   1.935       .  S
O1829      C1838   1.284       .  A
O1830     Ni1834   1.933       .  S
O1830      C1837   1.285       .  A
O1831     Ni1834   1.918       .  S
O1831      C1836   1.279       .  A
O1832     Ni1834   1.915       .  S
O1832      C1835   1.281       .  A
C1835      C2385   1.480   1_556  S
C1836      C2421   1.478       .  S
C1837      C2412   1.494       .  S
C1838      C2397   1.482       .  S
O1839     Ni1847   1.913       .  S
O1839      C1849   1.280       .  A
O1840     Ni1847   1.913       .  S
O1840      C1850   1.279       .  A
O1841     Ni1847   1.916       .  S
O1841      C1851   1.281       .  A
O1842     Ni1847   1.911       .  S
O1842      C1852   1.281       .  A
O1843     Ni1848   1.935       .  S
O1843      C1852   1.284       .  A
O1844     Ni1848   1.922       .  S
O1844      C1851   1.283       .  A
O1845     Ni1848   1.918       .  S
O1845      C1850   1.281       .  A
O1846     Ni1848   1.916       .  S
O1846      C1849   1.280       .  A
Ni1847    Ni1848   2.387       .  S
C1849      C2349   1.470       .  S
C1850      C2424   1.475       .  S
C1851      C2373   1.484       .  S
C1852      C2361   1.490       .  S
O1853     Ni1861   1.947       .  S
O1853      C1863   1.286       .  A
O1854     Ni1861   1.948       .  S
O1855     Ni1861   1.914       .  S
O1855      C1865   1.279       .  A
O1856     Ni1861   1.910       .  S
O1856      C1866   1.280       .  A
O1857     Ni1862   1.938       .  S
O1858     Ni1862   1.935       .  S
O1859     Ni1862   1.908       .  S
O1859      C1864   1.278       .  A
O1860     Ni1862   1.908       .  S
C1863      C2313   1.493       .  S
C1864      C2337   1.488       .  S
C1865      C2409   1.484       .  S
C1866      C2325   1.490       .  S
O1867     Ni1875   1.938       .  S
O1867      C1877   1.284       .  A
O1868     Ni1875   1.941       .  S
O1868      C1878   1.286       .  A
O1869     Ni1875   1.918       .  S
O1869      C1879   1.279       .  A
O1870     Ni1875   1.910       .  S
O1870      C1880   1.280       .  A
O1871     Ni1876   1.921       .  S
O1871      C1880   1.281       .  A
O1872     Ni1876   1.915       .  S
O1872      C1879   1.281       .  A
O1873     Ni1876   1.912       .  S
O1873      C1878   1.279       .  A
O1874     Ni1876   1.912       .  S
O1874      C1877   1.280       .  A
Ni1875    Ni1876   2.387       .  S
C1877      C2289   1.492       .  S
C1878      C2340   1.487       .  S
C1879      C2376   1.472       .  S
C1880      C2301   1.472       .  S
O1882     Ni1889   1.918       .  S
O1882      C1892   1.281       .  A
O1883     Ni1889   1.908       .  S
O1883      C1893   1.281       .  A
O1884     Ni1889   1.908       .  S
O1884      C1894   1.280       .  A
O1885     Ni1890   1.926       .  S
O1885      C1894   1.281       .  A
O1886     Ni1890   1.925       .  S
O1886      C1893   1.282       .  A
O1887     Ni1890   1.915       .  S
O1887      C1892   1.280       .  A
O1888     Ni1890   1.913       .  S
O1888      C1891   1.280       .  A
Ni1889    Ni1890   2.384       .  S
C1891      C2253   1.481       .  S
C1892      C2277   1.478       .  S
C1893      C2388   1.484       .  S
C1894      C2268   1.489       .  S
O1895     Ni1903   1.934       .  S
O1895      C1905   1.285       .  A
O1896     Ni1903   1.936       .  S
O1896      C1906   1.285       .  A
O1897     Ni1903   1.908       .  S
O1897      C1907   1.278       .  A
O1898     Ni1903   1.909       .  S
O1898      C1908   1.279       .  A
O1899     Ni1904   1.938       .  S
O1899      C1908   1.285       .  A
O1900     Ni1904   1.943       .  S
O1900      C1907   1.287       .  A
O1901     Ni1904   1.904       .  S
O1901      C1906   1.277       .  A
O1902     Ni1904   1.907       .  S
O1902      C1905   1.278       .  A
Ni1903    Ni1904   2.385       .  S
C1905      C2229   1.482       .  S
C1906      C2280   1.481       .  S
C1907      C2316   1.496       .  S
C1908      C2244   1.481       .  S
O1909     Ni1917   1.928       .  S
O1909      C1919   1.284       .  A
O1910     Ni1917   1.928       .  S
O1910      C1920   1.282       .  A
O1911     Ni1917   1.909       .  S
O1911      C1921   1.279       .  A
O1912     Ni1917   1.905       .  S
O1912      C1922   1.278       .  A
O1913     Ni1918   1.926       .  S
O1914     Ni1918   1.929   1_554  S
O1915     Ni1918   1.907       .  S
O1916     Ni1918   1.907   1_554  S
C1919      C2208   1.482       .  S
C1921      C2352   1.481       .  S
C1922      C2265   1.474       .  S
O1923     Ni1931   1.920       .  S
O1923      C1933   1.280       .  A
O1924     Ni1931   1.915       .  S
O1924      C1934   1.280       .  A
O1925     Ni1931   1.920       .  S
O1925      C1935   1.281       .  A
O1926     Ni1931   1.928       .  S
O1926      C1936   1.285       .  A
O1927     Ni1932   1.924       .  S
O1927      C1936   1.280       .  A
O1928     Ni1932   1.925       .  S
O1928      C1935   1.282       .  A
O1929     Ni1932   1.917   1_554  S
O1929      C1934   1.280   1_554  A
O1930     Ni1932   1.919       .  S
O1930      C1933   1.282       .  A
Ni1931    Ni1932   2.385       .  S
C1933      C2193   1.479       .  S
C1934      C2220   1.474       .  S
C1935      C2292   1.478       .  S
C1936      C2241   1.502       .  S
O1937     Ni1945   1.940       .  S
O1938      C1948   1.285       .  A
O1939      C1949   1.279   1_554  A
O1940     Ni1945   1.901       .  S
O1941     Ni1946   1.943       .  S
O1941      C1950   1.286       .  A
O1942     Ni1946   1.936       .  S
O1942      C1949   1.285       .  A
O1943     Ni1946   1.906       .  S
O1943      C1948   1.277       .  A
O1944     Ni1946   1.903       .  S
O1944      C1947   1.277       .  A
C1947      C2157   1.482       .  S
C1948      C2181   1.479       .  S
C1949      C2172   1.489       .  S
C1950      C2256   1.491       .  S
O1951     Ni1959   1.933       .  S
O1951      C1961   1.284       .  A
O1952     Ni1959   1.932       .  S
O1952      C1962   1.285       .  A
O1953     Ni1959   1.906       .  S
O1953      C1963   1.279       .  A
O1954     Ni1959   1.912       .  S
O1954      C1964   1.279       .  A
O1955     Ni1960   1.918       .  S
O1955      C1964   1.283       .  A
O1956     Ni1960   1.921       .  S
O1956      C1963   1.283       .  A
O1957     Ni1960   1.911       .  S
O1957      C1962   1.278       .  A
O1958     Ni1960   1.913       .  S
O1958      C1961   1.280       .  A
Ni1959    Ni1960   2.386       .  S
C1961      C2133   1.484       .  S
C1962      C2184   1.481       .  S
C1963      C2148   1.481       .  S
C1964      C2205   1.483       .  S
O1965     Ni1973   1.935       .  S
O1965      C1975   1.285       .  A
O1966     Ni1973   1.936       .  S
O1967     Ni1973   1.916       .  S
O1967      C1977   1.279       .  A
O1968     Ni1973   1.914       .  S
O1968      C1978   1.280       .  A
O1969     Ni1974   1.938       .  S
O1970     Ni1974   1.929       .  S
O1971     Ni1974   1.905       .  S
O1971      C1976   1.278       .  A
O1972     Ni1974   1.909       .  S
C1975      C2109   1.485       .  S
C1976      C2121   1.479       .  S
C1977      C2169   1.482       .  S
C1978      C2232   1.494       .  S
O1979     Ni1987   1.921       .  S
O1979      C1989   1.281       .  A
O1980     Ni1987   1.924       .  S
O1980      C1990   1.283       .  A
O1981     Ni1987   1.902       .  S
O1981      C1991   1.277       .  A
O1982     Ni1987   1.903       .  S
O1982      C1992   1.280       .  A
O1983     Ni1988   1.926       .  S
O1983      C1992   1.281       .  A
O1984     Ni1988   1.929       .  S
O1984      C1991   1.284       .  A
O1985     Ni1988   1.912       .  S
O1985      C1990   1.279       .  A
O1986     Ni1988   1.907       .  S
O1986      C1989   1.280       .  A
Ni1987    Ni1988   2.388       .  S
C1989      C2097   1.475       .  S
C1990      C2124   1.480       .  S
C1991      C2145   1.472       .  S
C1992      C2196   1.484       .  S
O1994     Ni2001   1.939       .  S
O1994      C2004   1.286       .  A
O1995     Ni2001   1.907       .  S
O1995      C2005   1.276       .  A
O1996     Ni2001   1.914       .  S
O1996      C2006   1.279       .  A
O1997     Ni2002   1.939       .  S
O1997      C2006   1.285       .  A
O1998     Ni2002   1.935       .  S
O1998      C2005   1.287       .  A
O1999     Ni2002   1.910       .  S
O1999      C2004   1.277       .  A
O2000     Ni2002   1.912       .  S
O2000      C2003   1.278       .  A
Ni2001    Ni2002   2.385       .  S
C2003      C2400   1.472       .  S
C2004      C2088   1.482       .  S
C2005      C2160   1.494       .  S
C2006      C2073   1.483       .  S
O2007     Ni2015   1.926       .  S
O2007      C2017   1.283       .  A
O2008     Ni2015   1.928       .  S
O2008      C2018   1.282       .  A
O2009     Ni2015   1.908       .  S
O2009      C2019   1.279       .  A
O2010     Ni2015   1.902       .  S
O2010      C2020   1.277       .  A
O2011     Ni2016   1.916       .  S
O2011      C2020   1.281       .  A
O2012     Ni2016   1.923       .  S
O2012      C2019   1.283       .  A
O2013     Ni2016   1.904       .  S
O2013      C2018   1.279       .  A
O2014     Ni2016   1.911       .  S
O2014      C2017   1.278       .  A
Ni2015    Ni2016   2.388       .  S
C2017      C2328   1.477       .  S
C2018      C2085   1.478       .  S
C2019      C2112   1.484       .  S
C2020      C2061   1.464       .  S
O2021     Ni2029   1.928       .  S
O2021      C2031   1.282       .  A
O2022     Ni2029   1.923       .  S
O2022      C2032   1.282       .  A
O2023     Ni2029   1.918       .  S
O2023      C2033   1.281       .  A
O2024     Ni2029   1.926       .  S
O2024      C2034   1.284       .  A
O2025     Ni2030   1.927       .  S
O2026     Ni2030   1.930       .  S
O2027     Ni2030   1.925       .  S
O2028      C2031   1.283       .  A
C2031      C2364   1.490       .  S
C2033      C2136   1.481       .  S
C2034      C2076   1.501       .  S
O2035     Ni2043   1.929       .  S
O2035      C2045   1.284       .  A
O2036     Ni2043   1.932       .  S
O2036      C2046   1.284       .  A
O2037     Ni2043   1.907       .  S
O2037      C2047   1.279       .  A
O2038     Ni2043   1.901       .  S
O2038      C2048   1.278       .  A
O2039     Ni2044   1.919       .  S
O2039      C2048   1.282       .  A
O2040     Ni2044   1.921       .  S
O2040      C2047   1.281       .  A
O2041     Ni2044   1.912       .  S
O2041      C2046   1.280       .  A
O2042     Ni2044   1.914       .  S
O2042      C2045   1.280       .  A
Ni2043    Ni2044   2.387       .  S
C2045      C2304   1.485       .  S
C2046      C2052   1.486       .  S
C2047      C2100   1.471       .  S
C2048      C2064   1.475       .  S
C2049      C2050   1.407       .  A
C2050      C2051   1.404       .  A
C2050      H2059   1.084       .  S
C2051      C2052   1.415       .  A
C2051      S2055   1.803       .  S
C2052      C2053   1.406       .  A
C2054      S2056   1.805       .  S
S2055      H2058   1.407       .  S
S2056      H2057   1.404       .  S
C2061      C2062   1.400       .  A
C2061      C2066   1.408       .  A
C2062      C2063   1.396       .  A
C2062      H2071   1.084       .  S
C2063      C2064   1.415       .  A
C2063      S2067   1.800   1_556  S
C2064      C2065   1.405       .  A
C2065      C2066   1.398       .  A
C2065      H2072   1.083       .  S
C2066      S2068   1.807       .  S
S2067      H2070   1.408   1_554  S
S2068      H2069   1.407       .  S
C2073      C2074   1.400       .  A
C2073      C2078   1.411       .  A
C2075      S2079   1.797       .  S
C2076      C2077   1.412       .  A
C2077      C2078   1.406       .  A
C2077      H2084   1.084       .  S
C2078      S2080   1.801       .  S
S2079      H2082   1.392       .  S
S2080      H2081   1.405       .  S
C2085      C2086   1.400       .  A
C2085      C2090   1.414       .  A
C2086      C2087   1.393       .  A
C2086      H2095   1.082       .  S
C2087      C2088   1.410       .  A
C2087      S2091   1.789       .  S
C2088      C2089   1.406       .  A
C2089      C2090   1.404       .  A
C2089      H2096   1.082       .  S
C2090      S2092   1.799       .  S
S2091      H2094   1.407       .  S
S2092      H2093   1.400   1_556  S
C2097      C2098   1.401       .  A
C2097      C2102   1.415       .  A
C2098      C2099   1.392       .  A
C2098      H2107   1.085       .  S
C2099      C2100   1.411   1_545  A
C2099      S2103   1.799   1_545  S
C2100      C2101   1.403   1_565  A
C2101      C2102   1.402       .  A
C2101      H2108   1.084       .  S
C2102      S2104   1.800       .  S
S2103      H2106   1.404       .  S
S2104      H2105   1.403       .  S
C2109      C2110   1.403       .  A
C2109      C2114   1.412       .  A
C2110      C2111   1.398       .  A
C2110      H2119   1.084   1_556  S
C2111      C2112   1.417       .  A
C2111      S2115   1.801   1_556  S
C2112      C2113   1.403       .  A
C2113      C2114   1.399       .  A
C2113      H2120   1.084       .  S
C2114      S2116   1.788       .  S
S2115      H2118   1.408   1_554  S
S2116      H2117   1.406       .  S
C2121      C2122   1.404       .  A
C2122      C2123   1.398       .  A
C2122      H2131   1.084       .  S
C2123      C2124   1.414       .  A
C2123      S2127   1.805       .  S
C2124      C2125   1.407       .  A
C2126      S2128   1.803       .  S
S2127      H2130   1.403       .  S
S2128      H2129   1.406       .  S
C2133      C2134   1.406       .  A
C2133      C2138   1.414       .  A
C2134      C2135   1.408       .  A
C2134      H2143   1.084       .  S
C2135      C2136   1.418   1_545  A
C2136      C2137   1.403   1_565  A
C2137      C2138   1.398       .  A
C2137      H2144   1.085   1_545  S
C2138      S2140   1.805       .  S
S2139      H2142   1.402   1_545  S
S2140      H2141   1.407       .  S
C2145      C2146   1.403       .  A
C2145      C2150   1.412       .  A
C2146      C2147   1.396       .  A
C2146      H2155   1.081       .  S
C2147      C2148   1.414       .  A
C2147      S2151   1.804       .  S
C2148      C2149   1.409       .  A
C2149      C2150   1.400       .  A
C2149      H2156   1.084       .  S
C2150      S2152   1.806       .  S
S2151      H2154   1.408       .  S
S2152      H2153   1.401       .  S
C2157      C2158   1.400       .  A
C2158      C2159   1.399       .  A
C2158      H2167   1.085       .  S
C2159      S2163   1.809       .  S
C2160      C2161   1.407       .  A
C2161      C2162   1.402       .  A
C2161      H2168   1.084       .  S
C2162      S2164   1.791       .  S
S2163      H2166   1.386       .  S
S2164      H2165   1.406       .  S
C2169      C2170   1.401       .  A
C2169      C2174   1.416       .  A
C2170      C2171   1.400       .  A
C2170      H2179   1.084   1_556  S
C2171      C2172   1.418       .  A
C2171      S2175   1.804   1_556  S
C2172      C2173   1.406       .  A
C2173      C2174   1.405       .  A
C2173      H2180   1.084       .  S
C2174      S2176   1.804       .  S
S2175      H2178   1.408   1_554  S
S2176      H2177   1.406       .  S
C2181      C2182   1.405       .  A
C2181      C2186   1.412       .  A
C2182      C2183   1.400       .  A
C2183      C2184   1.413       .  A
C2184      C2185   1.406       .  A
C2185      C2186   1.403       .  A
C2185      H2192   1.083       .  S
C2186      S2188   1.803       .  S
S2188      H2189   1.406       .  S
C2193      C2194   1.405       .  A
C2193      C2198   1.409       .  A
C2194      C2195   1.407       .  A
C2194      H2203   1.084       .  S
C2195      C2196   1.419   1_455  A
C2195      S2199   1.800   1_455  S
C2196      C2197   1.402       .  A
C2197      C2198   1.390   1_655  A
C2197      H2204   1.084       .  S
C2198      S2200   1.793       .  S
S2199      H2202   1.402       .  S
S2200      H2201   1.407       .  S
C2205      C2206   1.403       .  A
C2205      C2210   1.417       .  A
C2206      C2207   1.397       .  A
C2206      H2215   1.084       .  S
C2207      C2208   1.411       .  A
C2207      S2211   1.791       .  S
C2208      C2209   1.404       .  A
C2209      C2210   1.401       .  A
S2211      H2214   1.406       .  S
C2217      C2218   1.404   1_554  A
C2217      C2222   1.414       .  A
C2218      C2219   1.396       .  A
C2219      C2220   1.412       .  A
C2219      S2223   1.804       .  S
C2220      C2221   1.403   1_556  A
C2221      C2222   1.401       .  A
C2221      H2228   1.084       .  S
C2222      S2224   1.799       .  S
S2223      H2226   1.406       .  S
S2224      H2225   1.400       .  S
C2229      C2230   1.401   1_556  A
C2229      C2234   1.415       .  A
C2230      C2231   1.403       .  A
C2230      H2239   1.084       .  S
C2231      C2232   1.416   1_454  A
C2231      S2235   1.788       .  S
C2232      C2233   1.407   1_655  A
C2233      C2234   1.401       .  A
C2233      H2240   1.084   1_455  S
C2234      S2236   1.805       .  S
S2235      H2238   1.407   1_455  S
S2236      H2237   1.407       .  S
C2241      C2242   1.412       .  A
C2241      C2246   1.424       .  A
C2242      C2243   1.406       .  A
C2242      H2251   1.084       .  S
C2243      C2244   1.410       .  A
C2243      S2247   1.800       .  S
C2244      C2245   1.399       .  A
C2245      C2246   1.399       .  A
C2245      H2252   1.085   1_556  S
S2247      H2250   1.405       .  S
S2248      H2249   1.390       .  S
C2253      C2254   1.404       .  A
C2254      H2263   1.083       .  S
C2255      C2256   1.416       .  A
C2256      C2257   1.406   1_556  A
C2257      C2258   1.394       .  A
C2257      H2264   1.084       .  S
C2258      S2260   1.799       .  S
C2265      C2266   1.402       .  A
C2266      C2267   1.398       .  A
C2266      H2275   1.085       .  S
C2267      C2268   1.418       .  A
C2267      S2271   1.798       .  S
C2269      C2270   1.399       .  A
C2269      H2276   1.084   1_554  S
C2270      S2272   1.802   1_554  S
S2271      H2274   1.394       .  S
S2272      H2273   1.407       .  S
C2277      C2278   1.405       .  A
C2277      C2282   1.413       .  A
C2278      C2279   1.401       .  A
C2278      H2287   1.084       .  S
C2279      C2280   1.412       .  A
C2279      S2283   1.796       .  S
C2280      C2281   1.405       .  A
C2281      C2282   1.397       .  A
C2281      H2288   1.083       .  S
C2282      S2284   1.804       .  S
S2283      H2286   1.406       .  S
S2284      H2285   1.407       .  S
C2289      C2290   1.409       .  A
C2289      C2294   1.424       .  A
C2290      C2291   1.399   1_565  A
C2290      H2299   1.084       .  S
C2291      C2292   1.408       .  A
C2291      S2295   1.804       .  S
C2292      C2293   1.401       .  A
C2293      C2294   1.405   1_545  A
C2293      H2300   1.085   1_556  S
C2294      S2296   1.803   1_556  S
S2295      H2298   1.406       .  S
S2296      H2297   1.389       .  S
C2301      C2302   1.400       .  A
C2301      C2306   1.411       .  A
C2302      C2303   1.395       .  A
C2302      H2311   1.085       .  S
C2303      C2304   1.415   1_455  A
C2303      S2307   1.799   1_455  S
C2304      C2305   1.408       .  A
C2305      C2306   1.404   1_655  A
C2305      H2312   1.081       .  S
C2306      S2308   1.804       .  S
S2307      H2310   1.405       .  S
S2308      H2309   1.406       .  S
C2313      C2314   1.403       .  A
C2313      C2318   1.414       .  A
C2314      C2315   1.402       .  A
C2315      C2316   1.420       .  A
C2316      C2317   1.407       .  A
C2317      C2318   1.407       .  A
C2317      H2324   1.084       .  S
C2318      S2320   1.792       .  S
S2319      H2322   1.407       .  S
S2320      H2321   1.406       .  S
C2325      C2326   1.407       .  A
C2325      C2330   1.415   1_556  A
C2326      C2327   1.400       .  A
C2326      H2335   1.084       .  S
C2327      C2328   1.412   1_455  A
C2327      S2331   1.801       .  S
C2328      C2329   1.399   1_656  A
C2329      C2330   1.400       .  A
C2329      H2336   1.084   1_455  S
C2330      S2332   1.786       .  S
S2331      H2334   1.403   1_455  S
S2332      H2333   1.407       .  S
C2337      C2338   1.408       .  A
C2338      C2339   1.403       .  A
C2338      H2347   1.084       .  S
C2339      C2340   1.411       .  A
C2339      S2343   1.800       .  S
C2341      C2342   1.407       .  A
C2341      H2348   1.084       .  S
C2342      S2344   1.799   1_554  S
S2343      H2346   1.404       .  S
S2344      H2345   1.403       .  S
C2349      C2350   1.398       .  A
C2349      C2354   1.411       .  A
C2350      C2351   1.396   1_565  A
C2350      H2359   1.085       .  S
C2351      C2352   1.414       .  A
C2351      S2355   1.791       .  S
C2352      C2353   1.406       .  A
C2353      C2354   1.399   1_545  A
S2355      H2358   1.406       .  S
C2361      C2362   1.404       .  A
C2361      C2366   1.418       .  A
C2362      C2363   1.396       .  A
C2362      H2371   1.084       .  S
C2363      C2364   1.412       .  A
C2363      S2367   1.796       .  S
C2364      C2365   1.408       .  A
C2365      C2366   1.409       .  A
C2365      H2372   1.084       .  S
C2366      S2368   1.802       .  S
S2367      H2370   1.406       .  S
S2368      H2369   1.407       .  S
C2373      C2374   1.405       .  A
C2373      C2378   1.416       .  A
C2374      C2375   1.399       .  A
C2374      H2383   1.084       .  S
C2375      C2376   1.410       .  A
C2375      S2379   1.791       .  S
C2376      C2377   1.397       .  A
C2377      C2378   1.393       .  A
C2377      H2384   1.085       .  S
C2378      S2380   1.789       .  S
S2379      H2382   1.407       .  S
S2380      H2381   1.406       .  S
C2386      C2387   1.404       .  A
C2387      C2388   1.417       .  A
C2387      S2391   1.800       .  S
C2388      C2389   1.406       .  A
C2389      C2390   1.396       .  A
C2389      H2396   1.084       .  S
C2390      S2392   1.804       .  S
S2391      H2394   1.403       .  S
C2397      C2398   1.404       .  A
C2398      C2399   1.406       .  A
C2398      H2407   1.084       .  S
C2399      S2403   1.803       .  S
C2400      C2401   1.396       .  A
C2401      C2402   1.401       .  A
C2401      H2408   1.083       .  S
C2402      S2404   1.797       .  S
S2403      H2406   1.406       .  S
S2404      H2405   1.406       .  S
C2409      C2410   1.400   1_556  A
C2409      C2414   1.416       .  A
C2410      C2411   1.403       .  A
C2410      H2419   1.084       .  S
C2411      C2412   1.421   1_554  A
C2411      S2415   1.802       .  S
C2412      C2413   1.406       .  A
C2413      C2414   1.403       .  A
C2413      H2420   1.084       .  S
C2414      S2416   1.803       .  S
S2415      H2418   1.404       .  S
S2416      H2417   1.404       .  S
C2421      C2422   1.399       .  A
C2421      C2426   1.418       .  A
C2422      C2423   1.393       .  A
C2423      C2424   1.408       .  A
C2424      C2425   1.399       .  A
C2425      C2426   1.401       .  A
C2425      H2432   1.084       .  S
C2426      S2428   1.795       .  S
S2428      H2429   1.396       .  S
