geometry optimzed in LAMMPS
_audit_creation_date              2020-12-01 
_audit_creation_method            'lammps2cif' 
_symmetry_space_group_name_H-M    'P1' 
_symmetry_Int_Tables_number       1 
_symmetry_cell_setting            triclinic 
loop_ 
_symmetry_equiv_pos_as_xyz 
  x,y,z 
_cell_length_a                    60.0025723 
_cell_length_b                    60.91251290632148 
_cell_length_c                    60.331458278354454 
_cell_angle_alpha                 89.70082426550161 
_cell_angle_beta                  90.10236671377277 
_cell_angle_gamma                 90.32098913700744 
loop_ 
_atom_site_label 
_atom_site_type_symbol 
_atom_site_fract_x 
_atom_site_fract_y 
_atom_site_fract_z 
_atom_site_charge 
C1          C  0.78941977  0.82758669  0.01426923     0.79800
N2          N  0.78728095  0.81515475  0.99564314    -0.78500
C3          C  0.79946896  0.82019367  0.97717346     0.82200
N4          N  0.81377275  0.83756955  0.97763768    -0.78500
C5          C  0.81586346  0.85009376  0.99600402     0.82300
N6          N  0.80359681  0.84503548  0.01414002    -0.80200
C7          C  0.76230711  0.20678637  0.02634319     0.79800
N8          N  0.78122018  0.19465897  0.02595285    -0.78500
C9          C  0.79057376  0.18860309  0.00662247     0.82200
N10         N  0.78088098  0.19475663  0.98736924    -0.78500
C11         C  0.76212191  0.20719720  0.98710481     0.82300
N12         N  0.75279322  0.21337881  0.00678297    -0.80200
C13         C  0.18252493  0.84500719  0.02732947     0.79800
N14         N  0.16586160  0.85976744  0.02523057    -0.78500
C15         C  0.16170520  0.87000650  0.00579582     0.82200
N16         N  0.17449657  0.86538967  0.98802785    -0.78500
C17         C  0.19129453  0.85050327  0.98955192     0.82300
N18         N  0.19533946  0.84023715  0.00934068    -0.80200
C19         C  0.78559273  0.05025987  0.80360470     0.79800
N20         N  0.78202275  0.03192402  0.79106462    -0.78500
C21         C  0.79290080  0.01286654  0.79616870     0.82200
N22         N  0.80722563  0.01248613  0.81364978    -0.78500
C23         C  0.81068323  0.03048435  0.82618549     0.82300
N24         N  0.79982448  0.04920136  0.82108533    -0.80200
C25         C  0.95982107  0.21050922  0.79061260     0.79800
N26         N  0.97970562  0.21861198  0.78284814    -0.78500
C27         C  0.99909871  0.21395222  0.79391469     0.82200
N28         N  0.99820603  0.20164987  0.81278817    -0.78500
C29         C  0.97867356  0.19360308  0.82058240     0.82300
N30         N  0.95969359  0.19797809  0.80933921    -0.80200
C31         C  0.96849335  0.84634349  0.79983113     0.79800
N32         N  0.96893567  0.86181857  0.81592015    -0.78500
C33         C  0.98814101  0.87148264  0.82236513     0.82200
N34         N  0.00734825  0.86561712  0.81236794    -0.78500
C35         C  0.00749330  0.85027691  0.79603701     0.82300
N36         N  0.98794017  0.84048577  0.78975719    -0.80200
C37         C  0.17666315  0.05250501  0.80557223     0.79800
N38         N  0.18844290  0.03364010  0.80295586    -0.78500
C39         C  0.18379020  0.01584334  0.81599908     0.82200
N40         N  0.16768082  0.01725313  0.83170928    -0.78500
C41         C  0.15585431  0.03589532  0.83419062     0.82300
N42         N  0.16028833  0.05335308  0.82101021    -0.80200
C43         C  0.96161697  0.80992043  0.17202448     0.79800
N44         N  0.98086178  0.80179730  0.18080210    -0.78500
C45         C  0.00084226  0.81095717  0.17513920     0.82200
N46         N  0.00131928  0.82853226  0.16114841    -0.78500
C47         C  0.98228826  0.83682890  0.15247963     0.82300
N48         N  0.96257004  0.82735029  0.15790003    -0.80200
C49         C  0.77755203  0.03960706  0.20071733     0.79800
N50         N  0.76452994  0.02127450  0.20338052    -0.78500
C51         C  0.76892713  0.00276159  0.19139301     0.82200
N52         N  0.78606251  0.00304705  0.17659078    -0.78500
C53         C  0.79908705  0.02110758  0.17405659     0.82300
N54         N  0.79484719  0.03913160  0.18626812    -0.80200
C55         C  0.96328283  0.19838682  0.22991078     0.79800
N56         N  0.96394906  0.18623664  0.21106434    -0.78500
C57         C  0.98351375  0.17946894  0.20240597     0.82200
N58         N  0.00274016  0.18491336  0.21284597    -0.78500
C59         C  0.00274701  0.19728003  0.23155512     0.82300
N60         N  0.98285580  0.20419755  0.24007775    -0.80200
Zr61       Zr  0.25722859  0.30723086  0.27967972     2.17500
O62         O  0.28658808  0.31048480  0.30757715    -0.51800
O63         O  0.25028295  0.34667973  0.28135635    -0.75000
O64         O  0.29345522  0.31753141  0.26467909    -0.81800
O65         O  0.21553299  0.28931545  0.32545230    -0.83500
O66         O  0.29874808  0.30167371  0.23111607    -0.79100
O67         O  0.24960681  0.30456630  0.31900596    -0.90800
O68         O  0.22454220  0.35668388  0.25568137    -0.76700
O69         O  0.24996339  0.31694595  0.24222706    -0.86200
O70         O  0.21807937  0.31314565  0.27817666    -0.85900
O71         O  0.27009660  0.27645148  0.25847250    -0.72700
O72         O  0.24036658  0.27316192  0.29083032    -0.84800
Zr73       Zr  0.20537033  0.25870648  0.22962702     2.26400
Zr74       Zr  0.26212878  0.28627772  0.22066598     2.06300
Zr75       Zr  0.20099535  0.27908925  0.28898598     2.10000
Zr76       Zr  0.21071849  0.32246652  0.24049642     1.78800
O77         O  0.19278484  0.24966560  0.31527824    -0.93600
O78         O  0.22031113  0.34568794  0.20888719    -0.41400
O79         O  0.19254320  0.28894617  0.25138284    -0.78000
O80         O  0.22267008  0.29251095  0.21812102    -0.96700
O81         O  0.24444301  0.25238673  0.23121078    -0.90000
O82         O  0.21279780  0.24879827  0.26702111    -0.92900
C83         C  0.23842021  0.36113127  0.27119844     1.00900
C84         C  0.23406053  0.29782671  0.33200493     1.13800
C85         C  0.30557366  0.31304672  0.24779734     1.04600
O86         O  0.27013193  0.31635875  0.19512711    -0.95000
O87         O  0.24946128  0.27217223  0.18455235    -0.90800
O88         O  0.21741150  0.25343319  0.19180268    -0.83900
C89         C  0.23279586  0.26010464  0.17856363     1.11200
O90         O  0.28253716  0.23857044  0.29471856    -0.97000
Zr91       Zr  0.25181552  0.24278362  0.26864799     1.88900
O92         O  0.20808789  0.21897864  0.22997382    -0.73700
O93         O  0.28996004  0.26164020  0.20543206    -0.52900
O94         O  0.28337823  0.22498773  0.25105381    -0.97600
O95         O  0.24203309  0.21975566  0.30039036    -0.54800
O96         O  0.23651943  0.20932008  0.25283559    -0.74200
C97         C  0.22046266  0.20465155  0.23957186     0.98200
O98         O  0.17591351  0.26174466  0.20172934    -0.63000
O99         O  0.17443702  0.30462567  0.30495699    -0.57800
O100        O  0.16946849  0.24755401  0.24460814    -0.94500
O101        O  0.16498311  0.26261945  0.27873247    -0.92900
O102        O  0.17882157  0.34079805  0.25686186    -0.93300
O103        O  0.18029493  0.32355047  0.21372770    -0.92000
C104        C  0.15795713  0.25130002  0.26211074     1.17000
H105        H  0.21352477  0.32466771  0.28810078     0.33000
H106        H  0.21856945  0.29588011  0.20299925     0.43800
H107        H  0.20464186  0.23572769  0.27127182     0.37300
H108        H  0.28588426  0.27435682  0.26069942     0.33800
H109        H  0.21359509  0.36011627  0.21218349     0.25600
H110        H  0.29771039  0.27048030  0.19394887     0.31500
H111        H  0.28147955  0.20916608  0.25444919     0.37400
H112        H  0.16931048  0.32872319  0.26259850     0.31900
H113        H  0.16109229  0.30360258  0.29535029     0.30800
H114        H  0.17775350  0.25304028  0.32103167     0.32500
H115        H  0.22764899  0.21273613  0.29644787     0.31400
H116        H  0.16999143  0.31166744  0.21845041     0.35400
H117        H  0.16281208  0.26777381  0.20950670     0.28200
H118        H  0.29316451  0.32532416  0.30571330     0.32400
H119        H  0.28098227  0.25106463  0.30502975     0.35200
H120        H  0.16980469  0.29764876  0.31909176     0.27900
H121        H  0.18067861  0.27393014  0.19185600     0.40700
H122        H  0.25708218  0.31686927  0.18508063     0.30800
H123        H  0.23657263  0.34821279  0.21023397     0.38400
H124        H  0.23819099  0.23026436  0.31222897     0.30300
H125        H  0.30112003  0.25977368  0.21739082     0.30300
H126        H  0.29841973  0.30014974  0.30307515     0.30600
C127        C  0.18152303  0.04899183  0.20024503     0.79800
N128        N  0.19258052  0.03013463  0.20565842    -0.78500
C129        C  0.18697251  0.01089507  0.19549051     0.82200
N130        N  0.17057707  0.01088497  0.17997471    -0.78500
C131        C  0.15953057  0.02938588  0.17450165     0.82300
N132        N  0.16502622  0.04836053  0.18476990    -0.80200
Zr133      Zr  0.25420189  0.75711732  0.28583978     2.17500
O134        O  0.28093152  0.72724743  0.28314464    -0.51800
O135        O  0.25580815  0.75914712  0.32604858    -0.75000
O136        O  0.29175004  0.77037872  0.29263128    -0.81800
O137        O  0.20795817  0.71469963  0.27535960    -0.83500
O138        O  0.29630732  0.80433399  0.27735281    -0.79100
O139        O  0.24104812  0.72012636  0.29314866    -0.90800
O140        O  0.22821402  0.78178890  0.33730244    -0.76700
O141        O  0.24942016  0.79455472  0.29531470    -0.86200
O142        O  0.21584015  0.76036384  0.29508223    -0.85900
O143        O  0.26547726  0.77730318  0.25332625    -0.72700
O144        O  0.23404117  0.74625585  0.25326704    -0.84800
Zr145      Zr  0.20154590  0.80859158  0.23982739     2.26400
Zr146      Zr  0.25989955  0.81511759  0.26294460     2.06300
Zr147      Zr  0.19547366  0.75056955  0.26233835     2.10000
Zr148      Zr  0.21105170  0.79780355  0.30436311     1.78800
O149        O  0.18452517  0.72279390  0.23548667    -0.93600
O150        O  0.22354681  0.82835813  0.32723017    -0.41400
O151        O  0.18989466  0.78826570  0.27196126    -0.78000
O152        O  0.22139964  0.81937848  0.27260053    -0.96700
O153        O  0.23973340  0.80499274  0.23029705    -0.90000
O154        O  0.20597284  0.77113959  0.23015528    -0.92900
C155        C  0.24459017  0.76882675  0.34119406     1.00900
C156        C  0.22462101  0.70802133  0.28695248     1.13800
C157        C  0.30355203  0.78740560  0.28789124     1.04600
O158        O  0.27210431  0.84243537  0.28974777    -0.95000
O159        O  0.24802330  0.85112763  0.24904658    -0.90800
O160        O  0.21439106  0.84547997  0.23252962    -0.83900
C161        C  0.23102401  0.85769727  0.23782267     1.11200
O162        O  0.27119275  0.73815957  0.21589047    -0.97000
Zr163      Zr  0.24420541  0.76734832  0.22117892     1.88900
O164        O  0.20200038  0.80859884  0.19959873    -0.73700
O165        O  0.28711527  0.82593729  0.23498460    -0.52900
O166        O  0.27645374  0.77912547  0.19964814    -0.97600
O167        O  0.22938111  0.73693280  0.19945403    -0.54800
O168        O  0.22896048  0.78519012  0.18834588    -0.74200
C169        C  0.21341599  0.79910265  0.18447460     0.98200
O170        O  0.17381900  0.83740791  0.24395431    -0.63000
O171        O  0.16785503  0.73950610  0.28978663    -0.57800
O172        O  0.16467018  0.79511347  0.23111380    -0.94500
O173        O  0.15950796  0.76130013  0.24651645    -0.92900
O174        O  0.17841915  0.78260562  0.32302604    -0.93300
O175        O  0.18319170  0.82584651  0.31131154    -0.92000
C176        C  0.15278452  0.77804565  0.23532844     1.17000
H177        H  0.21186718  0.75089814  0.30736110     0.33000
H178        H  0.21834589  0.83453463  0.27594966     0.43800
H179        H  0.19666371  0.76722314  0.21771239     0.37300
H180        H  0.28096107  0.77460272  0.25012411     0.33800
H181        H  0.21720042  0.82536138  0.34209333     0.25600
H182        H  0.27816743  0.83047072  0.22194713     0.31500
H183        H  0.28526209  0.78843031  0.20985396     0.37400
H184        H  0.18431648  0.77128083  0.33326044     0.31900
H185        H  0.15785579  0.75230324  0.29114592     0.30800
H186        H  0.16991886  0.71726373  0.24077809     0.32500
H187        H  0.21581873  0.74266533  0.19212785     0.31400
H188        H  0.18026036  0.83250586  0.29659678     0.35400
H189        H  0.16637352  0.83854159  0.22933144     0.28200
H190        H  0.28888702  0.72708800  0.29754484     0.32400
H191        H  0.27579110  0.73392502  0.23108323     0.35200
H192        H  0.15870195  0.72819609  0.28226664     0.27900
H193        H  0.16234874  0.83122742  0.25402317     0.40700
H194        H  0.27466506  0.83407024  0.30363116     0.30800
H195        H  0.23976434  0.82608123  0.32911377     0.38400
H196        H  0.22374025  0.72629246  0.21059206     0.30300
H197        H  0.29368109  0.83977041  0.24062738     0.30300
H198        H  0.29216575  0.73230948  0.27223299     0.30600
Zr199      Zr  0.75821838  0.24935919  0.23359240     2.17500
O200        O  0.78717489  0.25396111  0.20562885    -0.51800
O201        O  0.75628968  0.20948441  0.23485937    -0.75000
O202        O  0.79439037  0.23885536  0.24804312    -0.81800
O203        O  0.71435719  0.26242756  0.18949366    -0.83500
O204        O  0.79891537  0.25347645  0.28238032    -0.79100
O205        O  0.74596086  0.24285669  0.19590387    -0.90800
O206        O  0.72788011  0.19963319  0.25770334    -0.76700
O207        O  0.75102607  0.23938632  0.27102848    -0.86200
O208        O  0.71906952  0.24321790  0.23525003    -0.85900
O209        O  0.77111644  0.28010777  0.25491939    -0.72700
O210        O  0.74132084  0.28322507  0.22220280    -0.84800
Zr211      Zr  0.70709803  0.29801090  0.28386584     2.26400
Zr212      Zr  0.76317221  0.27012943  0.29257061     2.06300
Zr213      Zr  0.70196116  0.27723701  0.22492615     2.10000
Zr214      Zr  0.71186014  0.23341878  0.27257508     1.78800
O215        O  0.69670492  0.30677639  0.19811012    -0.93600
O216        O  0.71932437  0.21060952  0.30500103    -0.41400
O217        O  0.69407097  0.26730454  0.26256167    -0.78000
O218        O  0.72366979  0.26382752  0.29524407    -0.96700
O219        O  0.74620316  0.30408671  0.28185367    -0.90000
O220        O  0.71422783  0.30779478  0.24637420    -0.92900
C221        C  0.74407291  0.19499886  0.24461809     1.00900
C222        C  0.73025345  0.24981458  0.18322153     1.13800
C223        C  0.80602718  0.24273666  0.26548825     1.04600
O224        O  0.76859059  0.24152421  0.32037397    -0.95000
O225        O  0.75254320  0.28713839  0.32758739    -0.90800
O226        O  0.72072111  0.30615671  0.32077202    -0.83900
C227        C  0.73682391  0.30014440  0.33344211     1.11200
O228        O  0.78483632  0.31631838  0.21899597    -0.97000
Zr229      Zr  0.75335048  0.31370016  0.24431528     1.88900
O230        O  0.71062030  0.33775405  0.28273981    -0.73700
O231        O  0.79327020  0.29296735  0.30705547    -0.52900
O232        O  0.78558986  0.33154754  0.26112006    -0.97600
O233        O  0.74494340  0.33554438  0.21141730    -0.54800
O234        O  0.73848051  0.34778403  0.25932714    -0.74200
C235        C  0.72279283  0.35230986  0.27302017     0.98200
O236        O  0.67782206  0.29451988  0.31173082    -0.63000
O237        O  0.67127453  0.25555744  0.20986641    -0.57800
O238        O  0.67104351  0.30956918  0.26952900    -0.94500
O239        O  0.66641761  0.29374712  0.23571810    -0.92900
O240        O  0.68094872  0.21593289  0.25312629    -0.93300
O241        O  0.67944939  0.22853091  0.29637776    -0.92000
C242        C  0.65944598  0.30529988  0.25211310     1.17000
H243        H  0.71452675  0.23152616  0.22543695     0.33000
H244        H  0.71971061  0.26069221  0.31045861     0.43800
H245        H  0.70616536  0.32081441  0.24203254     0.37300
H246        H  0.78695389  0.28213975  0.25288305     0.33800
H247        H  0.71272609  0.19611999  0.30138967     0.25600
H248        H  0.80122554  0.28340590  0.31774320     0.31500
H249        H  0.77996711  0.33786393  0.27510985     0.37400
H250        H  0.68241916  0.20008581  0.25651986     0.31900
H251        H  0.66743592  0.26285332  0.19566777     0.30800
H252        H  0.68705441  0.30035883  0.18647153     0.32500
H253        H  0.73013930  0.34199967  0.21432205     0.31400
H254        H  0.68030697  0.24086467  0.30697206     0.35400
H255        H  0.66593455  0.28573243  0.30454423     0.28200
H256        H  0.79485026  0.23963999  0.20488545     0.32400
H257        H  0.78136328  0.30570988  0.20707749     0.35200
H258        H  0.67798503  0.24142187  0.20548640     0.27900
H259        H  0.68393721  0.28448117  0.32315334     0.40700
H260        H  0.75433612  0.24085045  0.32859597     0.30800
H261        H  0.73561319  0.20814202  0.30464953     0.38400
H262        H  0.74216423  0.32464691  0.19958966     0.30300
H263        H  0.80377868  0.29492094  0.29455855     0.30300
H264        H  0.79822503  0.26412812  0.21228352     0.30600
Zr265      Zr  0.70750708  0.74491442  0.27168094     2.17500
O266        O  0.68077181  0.71489399  0.26747818    -0.51800
O267        O  0.70802238  0.74666480  0.31186098    -0.75000
O268        O  0.72344664  0.70980676  0.28221172    -0.81800
O269        O  0.66149387  0.78782858  0.26127095    -0.83500
O270        O  0.75639340  0.70612968  0.26404142    -0.79100
O271        O  0.66887344  0.75454488  0.27675246    -0.90800
O272        O  0.73348759  0.77242704  0.32191261    -0.76700
O273        O  0.74582466  0.75098540  0.27953826    -0.86200
O274        O  0.71005248  0.78283619  0.28072954    -0.85900
O275        O  0.72663166  0.73450026  0.23844951    -0.72700
O276        O  0.69413212  0.76442709  0.23977154    -0.84800
Zr277      Zr  0.75527083  0.79873969  0.22306187     2.26400
Zr278      Zr  0.76513470  0.74147391  0.24637493     2.06300
Zr279      Zr  0.69749955  0.80257024  0.24861295     2.10000
Zr280      Zr  0.74847059  0.78891455  0.28817167     1.78800
O281        O  0.67132298  0.81437406  0.22011026    -0.93600
O282        O  0.78018414  0.77811089  0.31097374    -0.41400
O283        O  0.73614396  0.80901709  0.25626581    -0.78000
O284        O  0.76884639  0.77965914  0.25532464    -0.96700
O285        O  0.75242545  0.76083645  0.21403057    -0.90000
O286        O  0.71684065  0.79293553  0.21536938    -0.92900
C287        C  0.71895782  0.75754283  0.32651527     1.00900
C288        C  0.65545009  0.76998485  0.27119323     1.13800
C289        C  0.74070642  0.69878913  0.27663301     1.04600
O290        O  0.79631704  0.73361758  0.27097273    -0.95000
O291        O  0.79980367  0.75404704  0.22936001    -0.90800
O292        O  0.79276912  0.78732496  0.21365913    -0.83900
C293        C  0.80565156  0.77115031  0.21818203     1.11200
O294        O  0.68690925  0.72499644  0.20434008    -0.97000
Zr295      Zr  0.71387487  0.75493514  0.20673233     1.88900
O296        O  0.75109172  0.79901749  0.18292855    -0.73700
O297        O  0.77574823  0.71262503  0.22069725    -0.52900
O298        O  0.72686449  0.72423932  0.18458636    -0.97600
O299        O  0.67961650  0.76614174  0.18819041    -0.54800
O300        O  0.72746193  0.77176362  0.17241499    -0.74200
C301        C  0.74065481  0.78791453  0.16807673     0.98200
O302        O  0.78207449  0.82899517  0.22407412    -0.63000
O303        O  0.68306762  0.82825604  0.27584330    -0.57800
O304        O  0.74177637  0.83596093  0.21918580    -0.94500
O305        O  0.70876230  0.83972579  0.23720897    -0.92900
O306        O  0.73324014  0.82075728  0.30694824    -0.93300
O307        O  0.77738976  0.81680790  0.29235003    -0.92000
C308        C  0.72526502  0.84745639  0.22593608     1.17000
H309        H  0.70095375  0.78633065  0.29339766     0.33000
H310        H  0.78431810  0.78331938  0.25780072     0.43800
H311        H  0.71188795  0.80202789  0.20318629     0.37300
H312        H  0.72429944  0.71905270  0.23570746     0.33800
H313        H  0.77811685  0.78592840  0.32517274     0.25600
H314        H  0.78630612  0.70334021  0.22915400     0.31500
H315        H  0.74054233  0.72969456  0.17718703     0.37400
H316        H  0.73307600  0.81668417  0.32285328     0.31900
H317        H  0.67756826  0.81905809  0.28827679     0.30800
H318        H  0.65838711  0.82007282  0.22840964     0.32500
H319        H  0.68327819  0.78030891  0.18092374     0.31400
H320        H  0.77995158  0.82243055  0.27713496     0.35400
H321        H  0.79387616  0.82434276  0.23456238     0.28200
H322        H  0.67987628  0.70772975  0.28221854     0.32400
H323        H  0.67661866  0.72739601  0.21690368     0.35200
H324        H  0.69645582  0.83571902  0.28185177     0.27900
H325        H  0.78930524  0.82923276  0.20933193     0.40700
H326        H  0.79818730  0.74711410  0.27986509     0.30800
H327        H  0.77740839  0.76248263  0.31468469     0.38400
H328        H  0.66937016  0.77009719  0.20036861     0.30300
H329        H  0.76222545  0.70338768  0.21904696     0.30300
H330        H  0.68812748  0.70402492  0.25781187     0.30600
C331        C  0.19662522  0.21071547  0.02250444     0.79800
N332        N  0.20746716  0.21530798  0.00306245    -0.78500
C333        C  0.19962940  0.20668255  0.98359392     0.82200
N334        N  0.18108408  0.19370668  0.98387445    -0.78500
C335        C  0.17002816  0.18952762  0.00292635     0.82300
N336        N  0.17785196  0.19810597  0.02201046    -0.80200
Zr337      Zr  0.20702132  0.25956432  0.78116518     2.17500
O338        O  0.18130186  0.26364421  0.81210830    -0.51800
O339        O  0.20615825  0.22000279  0.77732236    -0.75000
O340        O  0.16918271  0.25257841  0.76913352    -0.81800
O341        O  0.25369068  0.26748859  0.82350932    -0.83500
O342        O  0.16327312  0.26701931  0.73478839    -0.79100
O343        O  0.22108974  0.24921550  0.81735310    -0.90800
O344        O  0.23201124  0.21039230  0.75170805    -0.76700
O345        O  0.21110902  0.25100745  0.74298463    -0.86200
O346        O  0.24538111  0.25137554  0.77644692    -0.85900
O347        O  0.19450724  0.29150021  0.76150236    -0.72700
O348        O  0.22649817  0.29192796  0.79309102    -0.84800
Zr349      Zr  0.25720498  0.30736907  0.72955852     2.26400
Zr350      Zr  0.19921079  0.28296219  0.72302798     2.06300
Zr351      Zr  0.26507945  0.28351627  0.78783361     2.10000
Zr352      Zr  0.24967594  0.24357616  0.73817944     1.78800
O353        O  0.27808116  0.30781340  0.81712902    -0.93600
O354        O  0.23963537  0.22737105  0.70270689    -0.41400
O355        O  0.26985348  0.27554468  0.74936340    -0.78000
O356        O  0.23797354  0.27499370  0.71726605    -0.96700
O357        O  0.21888925  0.31538849  0.73412076    -0.90000
O358        O  0.25335399  0.31580217  0.76794343    -0.92900
C359        C  0.21667218  0.20581723  0.76573610     1.00900
C360        C  0.23765946  0.25471445  0.82968478     1.13800
C361        C  0.15666635  0.25673398  0.75236180     1.04600
O362        O  0.18952007  0.25587234  0.69499342    -0.95000
O363        O  0.20991259  0.29972229  0.68740164    -0.90800
O364        O  0.24397380  0.31554005  0.69231675    -0.83900
C365        C  0.22681431  0.31091528  0.68042827     1.11200
O366        O  0.18332871  0.32441548  0.79789228    -0.97000
Zr367      Zr  0.21477411  0.32358210  0.77233091     1.88900
O368        O  0.25493913  0.34703568  0.72989488    -0.73700
O369        O  0.16986734  0.30880609  0.71337088    -0.52900
O370        O  0.18403902  0.34520519  0.75755187    -0.97600
O371        O  0.22566131  0.34469418  0.80485482    -0.54800
O372        O  0.22994857  0.35704944  0.75610293    -0.74200
C373        C  0.24393514  0.36148659  0.74063269     0.98200
O374        O  0.28736865  0.30637278  0.70253194    -0.63000
O375        O  0.29179005  0.25497310  0.79729183    -0.57800
O376        O  0.29503506  0.31281365  0.74168601    -0.94500
O377        O  0.30139734  0.29753856  0.77553445    -0.92900
O378        O  0.27584355  0.21559484  0.75052388    -0.93300
O379        O  0.28468641  0.24247129  0.71787165    -0.92000
C380        C  0.30781528  0.30788489  0.75800145     1.17000
H381        H  0.24970122  0.23882834  0.78527256     0.33000
H382        H  0.24094259  0.27239886  0.70177581     0.43800
H383        H  0.26243336  0.32830611  0.77196953     0.37300
H384        H  0.17898496  0.29415161  0.76462740     0.33800
H385        H  0.24406093  0.21179222  0.70413494     0.25600
H386        H  0.16325919  0.31300992  0.72775440     0.31500
H387        H  0.18529851  0.35961614  0.76498717     0.37400
H388        H  0.27460656  0.20370961  0.73943014     0.31900
H389        H  0.29757955  0.24993093  0.78283906     0.30800
H390        H  0.28133952  0.32193796  0.80959129     0.32500
H391        H  0.23691107  0.35538625  0.79944553     0.31400
H392        H  0.28145594  0.24992387  0.70361419     0.35400
H393        H  0.28291026  0.29500045  0.69170010     0.28200
H394        H  0.17157133  0.25047052  0.81180839     0.32400
H395        H  0.18177497  0.33995049  0.80233947     0.35200
H396        H  0.30446732  0.26285519  0.80421061     0.27900
H397        H  0.28657685  0.32044626  0.69428113     0.40700
H398        H  0.18578030  0.26445508  0.68152946     0.30800
H399        H  0.22314673  0.22696144  0.70275662     0.38400
H400        H  0.23425477  0.33424727  0.81408552     0.30300
H401        H  0.17780210  0.32220783  0.70829639     0.30300
H402        H  0.17148539  0.27597145  0.80778834     0.30600
Zr403      Zr  0.21240836  0.80604501  0.78823974     2.17500
O404        O  0.18210900  0.80081857  0.81468503    -0.51800
O405        O  0.21382916  0.84580648  0.79003177    -0.75000
O406        O  0.22484888  0.81268828  0.82576204    -0.81800
O407        O  0.17072877  0.79773407  0.74080980    -0.83500
O408        O  0.25889991  0.79750099  0.83178057    -0.79100
O409        O  0.17527872  0.81340347  0.77474943    -0.90800
O410        O  0.23952493  0.85761315  0.76506536    -0.76700
O411        O  0.25069140  0.81572867  0.78543105    -0.86200
O412        O  0.21744957  0.81638209  0.75046397    -0.85900
O413        O  0.23228747  0.77384538  0.79966509    -0.72700
O414        O  0.20144100  0.77464695  0.76691401    -0.84800
Zr415      Zr  0.26600740  0.76230137  0.73713155     2.26400
Zr416      Zr  0.27098060  0.78347305  0.79588468     2.06300
Zr417      Zr  0.20758718  0.78486135  0.72892173     2.10000
Zr418      Zr  0.25580629  0.82569195  0.74765933     1.78800
O419        O  0.17834638  0.76118682  0.71415930    -0.93600
O420        O  0.28764321  0.84559458  0.76281769    -0.41400
O421        O  0.24620589  0.79448335  0.72529051    -0.78000
O422        O  0.27695533  0.79395642  0.75800436    -0.96700
O423        O  0.26070276  0.75198720  0.77470975    -0.90000
O424        O  0.22764864  0.75286195  0.73990533    -0.92900
C425        C  0.22486465  0.86102522  0.78007966     1.00900
C426        C  0.16346536  0.80829058  0.75777174     1.13800
C427        C  0.24153486  0.80797656  0.83819591     1.04600
O428        O  0.29944529  0.80944299  0.80797353    -0.95000
O429        O  0.30714604  0.76809611  0.78511991    -0.90800
O430        O  0.30222195  0.75255618  0.75120928    -0.83900
C431        C  0.31396689  0.75689975  0.76841686     1.11200
O432        O  0.19337906  0.73768105  0.80539891    -0.97000
Zr433      Zr  0.22226210  0.74286453  0.77749992     1.88900
O434        O  0.26624525  0.72249326  0.73737918    -0.73700
O435        O  0.28037113  0.75633103  0.82413215    -0.52900
O436        O  0.23461998  0.71948938  0.80794213    -0.97600
O437        O  0.19212721  0.72200162  0.76033431    -0.54800
O438        O  0.23945866  0.71089495  0.76129049    -0.74200
C439        C  0.25504707  0.70733377  0.74727224     0.98200
O440        O  0.29555062  0.77037441  0.71056535    -0.63000
O441        O  0.20009197  0.81316928  0.70125848    -0.57800
O442        O  0.25403854  0.75232548  0.70046014    -0.94500
O443        O  0.22029075  0.76805831  0.69407520    -0.92900
O444        O  0.24205646  0.85011450  0.71869197    -0.93300
O445        O  0.28378049  0.83245362  0.71919835    -0.92000
C446        C  0.23730307  0.75670568  0.68803171     1.17000
H447        H  0.20821196  0.82875216  0.74650766     0.33000
H448        H  0.29256954  0.79712247  0.75553984     0.43800
H449        H  0.22381863  0.74065816  0.73044489     0.37300
H450        H  0.22889649  0.77028495  0.81493175     0.33800
H451        H  0.28694380  0.86030600  0.75579750     0.25600
H452        H  0.28585370  0.74347237  0.81582506     0.31500
H453        H  0.25083584  0.71770727  0.80557541     0.37400
H454        H  0.23963315  0.84049454  0.70573091     0.31900
H455        H  0.21191015  0.81142727  0.68997975     0.30800
H456        H  0.17386284  0.76819657  0.70000281     0.32500
H457        H  0.17929948  0.73215354  0.76007734     0.31400
H458        H  0.29207625  0.81850158  0.71811641     0.35400
H459        H  0.29900838  0.75610954  0.70361426     0.28200
H460        H  0.18188834  0.81430137  0.82378159     0.32400
H461        H  0.18288016  0.74992027  0.80282804     0.35200
H462        H  0.18628309  0.80823193  0.69373839     0.27900
H463        H  0.28838514  0.77911385  0.69866473     0.40700
H464        H  0.30740641  0.81371365  0.79424055     0.30800
H465        H  0.28374437  0.84820511  0.77852236     0.38400
H466        H  0.18803453  0.71055842  0.77133168     0.30300
H467        H  0.29378844  0.76238061  0.83153526     0.30300
H468        H  0.18725635  0.78909862  0.82488323     0.30600
Zr469      Zr  0.75593652  0.25974056  0.78166408     2.17500
O470        O  0.78686168  0.26262696  0.80781066    -0.51800
O471        O  0.75148534  0.21975589  0.78248240    -0.75000
O472        O  0.74392795  0.25321147  0.81937903    -0.81800
O473        O  0.79795514  0.26730584  0.73404075    -0.83500
O474        O  0.70916730  0.26680101  0.82458009    -0.79100
O475        O  0.79249081  0.25065212  0.76743603    -0.90800
O476        O  0.72651619  0.21033335  0.75582997    -0.76700
O477        O  0.71751646  0.25109455  0.77742301    -0.86200
O478        O  0.75118734  0.25176018  0.74345497    -0.85900
O479        O  0.73673121  0.29208610  0.79373977    -0.72700
O480        O  0.76755153  0.29252922  0.76244697    -0.84800
Zr481      Zr  0.70403289  0.30768894  0.73083832     2.26400
Zr482      Zr  0.69801472  0.28319640  0.78895165     2.06300
Zr483      Zr  0.76238975  0.28434027  0.72403639     2.10000
Zr484      Zr  0.71270012  0.24374030  0.73901776     1.78800
O485        O  0.79110103  0.31151015  0.71556691    -0.93600
O486        O  0.67990095  0.22257729  0.75008378    -0.41400
O487        O  0.72369950  0.27584704  0.71870841    -0.78000
O488        O  0.69219461  0.27530253  0.75037532    -0.96700
O489        O  0.70862048  0.31571668  0.76903173    -0.90000
O490        O  0.74246519  0.31648050  0.73504227    -0.92900
C491        C  0.74009692  0.20549079  0.77149778     1.00900
C492        C  0.80453037  0.25535569  0.75044006     1.13800
C493        C  0.72678832  0.25688131  0.83147270     1.04600
O494        O  0.66822177  0.25714270  0.79721272    -0.95000
O495        O  0.66252382  0.29992494  0.77878569    -0.90800
O496        O  0.66728481  0.31609381  0.74496179    -0.83900
C497        C  0.65563885  0.31135778  0.76217927     1.11200
O498        O  0.77634371  0.32925086  0.80079874    -0.97000
Zr499      Zr  0.74690815  0.32450869  0.77329977     1.88900
O500        O  0.70357046  0.34724868  0.73367879    -0.73700
O501        O  0.68799170  0.30795849  0.81886817    -0.52900
O502        O  0.73189209  0.34219527  0.80614858    -0.97600
O503        O  0.77755737  0.34779485  0.76049653    -0.54800
O504        O  0.72870640  0.35779289  0.75971081    -0.74200
C505        C  0.71325664  0.36190970  0.74552036     0.98200
O506        O  0.67614379  0.30380489  0.70165887    -0.63000
O507        O  0.77375313  0.25956738  0.69460850    -0.57800
O508        O  0.71698729  0.31640232  0.69378106    -0.94500
O509        O  0.75039889  0.29968902  0.68857487    -0.92900
O510        O  0.72853691  0.22432364  0.70762388    -0.93300
O511        O  0.68481087  0.23896327  0.71005449    -0.92000
C512        C  0.73379567  0.31116268  0.68178548     1.17000
H513        H  0.76007164  0.23935887  0.73903418     0.33000
H514        H  0.67658687  0.27260557  0.74752689     0.43800
H515        H  0.74653266  0.32896440  0.72592905     0.37300
H516        H  0.73991538  0.29483574  0.80917107     0.33800
H517        H  0.68386818  0.21591752  0.76455406     0.25600
H518        H  0.67823325  0.29913573  0.82874204     0.31500
H519        H  0.71619822  0.34554308  0.80239287     0.37400
H520        H  0.72443639  0.20873992  0.71010663     0.31900
H521        H  0.75980909  0.25589411  0.68661576     0.30800
H522        H  0.79449173  0.30931176  0.69967984     0.32500
H523        H  0.77405599  0.36261662  0.76614098     0.31400
H524        H  0.68694446  0.25177084  0.70009571     0.35400
H525        H  0.66549058  0.29263178  0.70729225     0.28200
H526        H  0.78674596  0.24871388  0.81637141     0.32400
H527        H  0.77553386  0.34478073  0.80549465     0.35200
H528        H  0.78233047  0.26884873  0.68409743     0.27900
H529        H  0.66773258  0.31774548  0.70163121     0.40700
H530        H  0.67595114  0.24324398  0.80076520     0.30800
H531        H  0.66848943  0.23364235  0.75377035     0.38400
H532        H  0.77558335  0.34905177  0.74425488     0.30300
H533        H  0.70189067  0.31012543  0.82747223     0.30300
H534        H  0.78238576  0.27403825  0.81853584     0.30600
Zr535      Zr  0.75651311  0.80965774  0.77423798     2.17500
O536        O  0.75419009  0.83803021  0.80253307    -0.51800
O537        O  0.79693507  0.80901543  0.77277974    -0.75000
O538        O  0.76548627  0.79556682  0.81066603    -0.81800
O539        O  0.74472607  0.85393328  0.73004287    -0.83500
O540        O  0.75022242  0.76153876  0.81487742    -0.79100
O541        O  0.76233006  0.84739802  0.76278627    -0.90800
O542        O  0.80800264  0.78584191  0.74569068    -0.76700
O543        O  0.76668743  0.77251614  0.76825470    -0.86200
O544        O  0.76510293  0.80740944  0.73594018    -0.85900
O545        O  0.72452534  0.78855231  0.78568846    -0.72700
O546        O  0.72308800  0.82086212  0.75563212    -0.84800
Zr547      Zr  0.70995420  0.75946384  0.72117832     2.26400
Zr548      Zr  0.73477730  0.75116949  0.77879768     2.06300
Zr549      Zr  0.73187934  0.81808590  0.71697838     2.10000
Zr550      Zr  0.77458521  0.77010624  0.72974097     1.78800
O551        O  0.70419591  0.84513724  0.70606118    -0.93600
O552        O  0.79566678  0.73825442  0.74217032    -0.41400
O553        O  0.74172979  0.78072924  0.70998826    -0.78000
O554        O  0.74323758  0.74787579  0.73998567    -0.96700
O555        O  0.70134592  0.76132482  0.75952782    -0.90000
O556        O  0.69995452  0.79663554  0.72725290    -0.92900
C557        C  0.81203495  0.79947156  0.76131101     1.00900
C558        C  0.75626934  0.86014284  0.74688522     1.13800
C559        C  0.76105861  0.77832588  0.82213451     1.04600
O560        O  0.76307767  0.72417179  0.78823821    -0.95000
O561        O  0.72041565  0.71548487  0.76721662    -0.90800
O562        O  0.70393579  0.72219988  0.73402192    -0.83900
C563        C  0.70939829  0.70934358  0.75004033     1.11200
O564        O  0.68551646  0.82187198  0.79769916    -0.97000
Zr565      Zr  0.69153513  0.79848922  0.76564701     1.88900
O566        O  0.66953295  0.76066816  0.72071050    -0.73700
O567        O  0.70884174  0.73725005  0.80658333    -0.52900
O568        O  0.66966730  0.78101443  0.79487017    -0.97600
O569        O  0.67024262  0.83060464  0.75430759    -0.54800
O570        O  0.65832916  0.78323926  0.74830026    -0.74200
C571        C  0.65439688  0.77018259  0.73211150     0.98200
O572        O  0.71144768  0.73287005  0.69110526    -0.63000
O573        O  0.75925486  0.83081414  0.68992933    -0.57800
O574        O  0.70393623  0.77278081  0.68388224    -0.94500
O575        O  0.71795878  0.80746992  0.68046359    -0.92900
O576        O  0.79732239  0.78477171  0.69969618    -0.93300
O577        O  0.77858910  0.74567728  0.69816696    -0.92000
C578        C  0.70820387  0.79027969  0.67273361     1.17000
H579        H  0.77735887  0.81704089  0.73211039     0.33000
H580        H  0.74662042  0.73283360  0.73637325     0.43800
H581        H  0.68731787  0.80090470  0.71830788     0.37300
H582        H  0.72166724  0.79073696  0.80127010     0.33800
H583        H  0.81028541  0.73976137  0.73471147     0.25600
H584        H  0.71815752  0.72854081  0.81691761     0.31500
H585        H  0.66875229  0.76533742  0.79068224     0.37400
H586        H  0.78716435  0.79448516  0.69127390     0.31900
H587        H  0.75159712  0.84265683  0.68165803     0.30800
H588        H  0.69582020  0.84818862  0.71980806     0.32500
H589        H  0.67954150  0.84336410  0.75864125     0.31400
H590        H  0.77210252  0.73149581  0.70309265     0.35400
H591        H  0.72286495  0.72202865  0.69557358     0.28200
H592        H  0.76889850  0.83813406  0.81001457     0.32400
H593        H  0.69862781  0.83180888  0.79794852     0.35200
H594        H  0.77096218  0.83849045  0.69855545     0.27900
H595        H  0.69709983  0.72476691  0.69165467     0.40700
H596        H  0.76569310  0.71603648  0.77432891     0.30800
H597        H  0.79892886  0.74110408  0.75799321     0.38400
H598        H  0.65730603  0.83096389  0.76446295     0.30300
H599        H  0.70448943  0.75033445  0.81517957     0.30300
H600        H  0.74362578  0.83225936  0.81375796     0.30600
C601        C  0.49863789  0.71925736  0.70047789     0.79800
N602        N  0.49672987  0.70431570  0.68401996    -0.78500
C603        C  0.47753798  0.69291913  0.68083516     0.82200
N604        N  0.45988795  0.69671534  0.69437348    -0.78500
C605        C  0.46140629  0.71186924  0.71087747     0.82300
N606        N  0.48090770  0.72301748  0.71389906    -0.80200
C607        C  0.28452682  0.51522071  0.69623543     0.79800
N608        N  0.27999456  0.53446476  0.70679369    -0.78500
C609        C  0.29132662  0.55314471  0.70106415     0.82200
N610        N  0.30713961  0.55221923  0.68505352    -0.78500
C611        C  0.31175229  0.53325074  0.67455056     0.82300
N612        N  0.30033177  0.51487556  0.68017854    -0.80200
C613        C  0.50272020  0.35503787  0.71933538     0.79800
N614        N  0.50368952  0.36786182  0.70083621    -0.78500
C615        C  0.48519294  0.37145904  0.68845768     0.82200
N616        N  0.46550113  0.36263288  0.69503484    -0.78500
C617        C  0.46404997  0.35023170  0.71380441     0.82300
N618        N  0.48285727  0.34616422  0.72578752    -0.80200
C619        C  0.66338632  0.51533556  0.71582438     0.79800
N620        N  0.67304832  0.53453291  0.72264246    -0.78500
C621        C  0.66875028  0.55351684  0.71130162     0.82200
N622        N  0.65522868  0.55286674  0.69320416    -0.78500
C623        C  0.64569692  0.53396750  0.68639997     0.82300
N624        N  0.64976566  0.51535534  0.69784804    -0.80200
C625        C  0.50391642  0.35732304  0.27943740     0.79800
N626        N  0.50473226  0.36977038  0.29809700    -0.78500
C627        C  0.48598075  0.37536969  0.30904337     0.82200
N628        N  0.46600944  0.36874880  0.30094744    -0.78500
C629        C  0.46443754  0.35660100  0.28212593     0.82300
N630        N  0.48359147  0.35053470  0.27142937    -0.80200
C631        C  0.69470482  0.50873062  0.32008984     0.79800
N632        N  0.70813119  0.52634798  0.31522483    -0.78500
C633        C  0.70313046  0.54658511  0.32363934     0.82200
N634        N  0.68473090  0.54895720  0.33650573    -0.78500
C635        C  0.67116224  0.53169940  0.34092879     0.82300
N636        N  0.67632407  0.51181238  0.33274695    -0.80200
C637        C  0.49756105  0.73722843  0.31343019     0.79800
N638        N  0.47889467  0.74968054  0.31071766    -0.78500
C639        C  0.46008446  0.74469999  0.32248436     0.82200
N640        N  0.46030457  0.72744969  0.33687101    -0.78500
C641        C  0.47866926  0.71495267  0.33959181     0.82300
N642        N  0.49716300  0.71990591  0.32775878    -0.80200
C643        C  0.26888001  0.51546986  0.31928618     0.79800
N644        N  0.25906080  0.53489713  0.31387593    -0.78500
C645        C  0.26806930  0.55411299  0.32142000     0.82200
N646        N  0.28703472  0.55375074  0.33391040    -0.78500
C647        C  0.29697002  0.53444647  0.33902202     0.82300
N648        N  0.28760500  0.51550878  0.33189271    -0.80200
C649        C  0.67788259  0.72855616  0.48532809     0.79800
N650        N  0.66266183  0.71222528  0.48776308    -0.78500
C651        C  0.65090622  0.70957190  0.50662690     0.82200
N652        N  0.65442759  0.72360696  0.52358244    -0.78500
C653        C  0.66985302  0.73999972  0.52183862     0.82300
N654        N  0.68164322  0.74255472  0.50257520    -0.80200
C655        C  0.70245485  0.35361111  0.48617942     0.79800
N656        N  0.68420683  0.36671680  0.48566223    -0.78500
C657        C  0.67527830  0.37464621  0.50450755     0.82200
N658        N  0.68470370  0.36939041  0.52417996    -0.78500
C659        C  0.70270085  0.35596265  0.52522574     0.82300
N660        N  0.71158633  0.34793475  0.50611101    -0.80200
C661        C  0.28802795  0.72400357  0.49589891     0.79800
N662        N  0.30400984  0.70834361  0.49536980    -0.78500
C663        C  0.30920744  0.69659717  0.51372408     0.82200
N664        N  0.29841844  0.70068875  0.53287365    -0.78500
C665        C  0.28254890  0.71640104  0.53404471     0.82300
N666        N  0.27718672  0.72806805  0.51537293    -0.80200
C667        C  0.27453061  0.34197677  0.48648392     0.79800
N668        N  0.29346069  0.35434534  0.48681779    -0.78500
C669        C  0.30008897  0.36469474  0.50553525     0.82200
N670        N  0.28778053  0.36233573  0.52422927    -0.78500
C671        C  0.26904727  0.34962640  0.52450663     0.82300
N672        N  0.26233608  0.33951743  0.50543663    -0.80200
O673        O  0.91676769  0.99650250  0.00268791    -0.86900
O674        O  0.04314473  0.99878035  0.00253658    -0.87100
O675        O  0.98120721  0.97351124  0.96520753    -0.88800
O676        O  0.97874723  0.96794746  0.03658932    -0.87500
O677        O  0.98083204  0.99221604  0.06561030    -0.87100
O678        O  0.97985161  0.00202787  0.94013386    -0.88500
O679        O  0.01643829  0.97160950  0.00261688    -0.87000
O680        O  0.94396466  0.97044280  0.99881694    -0.86500
Zr681      Zr  0.97992703  0.98884653  0.00232916     2.84300
O682        O  0.00220468  0.00948689  0.02641291    -1.08500
O683        O  0.95705849  0.01197525  0.98157514    -1.09300
C684        C  0.92343568  0.97660233  0.99990347     1.06200
C685        C  0.03683649  0.97849676  0.00226933     1.06100
C686        C  0.98083404  0.98147628  0.94535310     1.09100
C687        C  0.97977528  0.97263383  0.05738341     1.06900
H688        H  0.01174275  0.00451771  0.97172636     0.32400
O689        O  0.00228624  0.01274945  0.98155809    -1.29500
H690        H  0.94799362  0.99873327  0.03500664     0.32100
O691        O  0.95728134  0.00866846  0.02652305    -1.31200
O692        O  0.04196901  0.06968937  0.00588089    -0.86900
O693        O  0.91576307  0.06701361  0.00657289    -0.88400
O694        O  0.01555280  0.03914709  0.94315890    -0.87000
O695        O  0.01590075  0.02881017  0.06848913    -0.87100
O696        O  0.94316350  0.02861213  0.06833453    -0.86800
O697        O  0.94317522  0.03410678  0.94286320    -0.86600
O698        O  0.97839424  0.09796457  0.97323879    -0.86900
O699        O  0.97877715  0.09293937  0.04646036    -0.86400
O700        O  0.97683630  0.07260904  0.94515095    -0.87500
O701        O  0.98075805  0.06389288  0.07091443    -0.86600
O702        O  0.04251238  0.03647586  0.97002240    -0.87000
O703        O  0.91624862  0.03357812  0.96984087    -0.86700
O704        O  0.91626827  0.02930026  0.04127004    -0.86400
O705        O  0.04272951  0.02999468  0.04134944    -0.86800
O706        O  0.01533596  0.09648031  0.00865090    -0.87100
O707        O  0.94197269  0.09448516  0.00993386    -0.88400
Zr708      Zr  0.02411091  0.03375977  0.00563863     2.83100
Zr709      Zr  0.93486603  0.03218260  0.00562779     2.83500
Zr710      Zr  0.97930163  0.03611948  0.96109273     2.84100
Zr711      Zr  0.97962952  0.02964913  0.05029154     2.83400
Zr712      Zr  0.97896663  0.07776415  0.00875569     2.84200
O713        O  0.95687028  0.05331097  0.02959982    -1.09000
O714        O  0.00144651  0.05725351  0.98488819    -1.08500
C715        C  0.03574879  0.08992738  0.00685083     1.06100
C716        C  0.92170587  0.08729788  0.00828680     1.08800
C717        C  0.03605385  0.03846423  0.94971459     1.06300
C718        C  0.03630264  0.02876047  0.06172866     1.06700
C719        C  0.92263594  0.02841795  0.06170342     1.06300
C720        C  0.92272831  0.03356659  0.94945942     1.05800
C721        C  0.97706918  0.09244363  0.95254071     1.06200
C722        C  0.98010985  0.08459543  0.06621712     1.05800
H723        H  0.94717078  0.06589296  0.97615995     0.32400
O724        O  0.95676618  0.05652341  0.98486132    -1.30100
H725        H  0.01125273  0.06264300  0.03930424     0.32500
O726        O  0.00179713  0.05413360  0.02958599    -1.31500
O727        O  0.48006298  0.58913430  0.53806956    -0.86900
O728        O  0.48810965  0.46467260  0.53469580    -0.87100
O729        O  0.44761306  0.52658432  0.56200344    -0.88800
O730        O  0.51954567  0.52769289  0.56356318    -0.87500
O731        O  0.54690924  0.53196795  0.53729009    -0.87100
O732        O  0.42082561  0.52486405  0.53479113    -0.88500
O733        O  0.48691820  0.49104950  0.56173663    -0.87000
O734        O  0.48050330  0.56144338  0.56407131    -0.86500
Zr735      Zr  0.48393813  0.52690541  0.54447210     2.84300
O736        O  0.50780229  0.50701022  0.52179708    -1.08500
O737        O  0.46049338  0.54825389  0.52252135    -1.09300
C738        C  0.47958855  0.58181750  0.55821990     1.06200
C739        C  0.48822631  0.47098050  0.55517340     1.06100
C740        C  0.42725600  0.52605443  0.55516079     1.09100
C741        C  0.54003698  0.52986429  0.55748486     1.06900
H742        H  0.45409237  0.49398182  0.53080528     0.32400
O743        O  0.46293393  0.50375960  0.52169435    -1.29500
H744        H  0.51385114  0.56096391  0.53348563     0.32100
O745        O  0.50535229  0.55159575  0.52371136    -1.31200
O746        O  0.48849172  0.46718761  0.46202624    -0.86900
O747        O  0.48067573  0.59171884  0.46579047    -0.88400
O748        O  0.42330330  0.48917757  0.50013482    -0.87000
O749        O  0.54977048  0.49757463  0.50133152    -0.87100
O750        O  0.54457204  0.56900468  0.50233170    -0.86800
O751        O  0.41930736  0.55931115  0.50191268    -0.86600
O752        O  0.44865814  0.52956713  0.43604139    -0.86900
O753        O  0.52125170  0.53255967  0.43744805    -0.86400
O754        O  0.42202913  0.52543356  0.46308301    -0.87500
O755        O  0.54753496  0.53500065  0.46510412    -0.86600
O756        O  0.45115578  0.46355688  0.49876136    -0.87000
O757        O  0.44463728  0.58775378  0.50199575    -0.86700
O758        O  0.51586862  0.59373381  0.50360978    -0.86400
O759        O  0.52463946  0.46900136  0.49905719    -0.86800
O760        O  0.48889997  0.49489371  0.43596492    -0.87100
O761        O  0.48413896  0.56656680  0.43777184    -0.88400
Zr762      Zr  0.48682981  0.48383809  0.49876719     2.83100
Zr763      Zr  0.48174718  0.57255351  0.50131341     2.83500
Zr764      Zr  0.43993595  0.52537210  0.49928071     2.84100
Zr765      Zr  0.52908713  0.53179608  0.50085224     2.83400
Zr766      Zr  0.48489810  0.53002148  0.45502578     2.84200
O767        O  0.50582061  0.55304361  0.47832798    -1.09000
O768        O  0.46345295  0.50524155  0.47619892    -1.08500
C769        C  0.48949214  0.47445180  0.44185885     1.06100
C770        C  0.48194725  0.58635765  0.44513600     1.08800
C771        C  0.43040219  0.46925098  0.49995439     1.06300
C772        C  0.54463594  0.47697470  0.50036588     1.06700
C773        C  0.53668416  0.58868867  0.50352759     1.06300
C774        C  0.42470345  0.57980151  0.50250221     1.05800
C775        C  0.42824792  0.52750840  0.44269001     1.06200
C776        C  0.54145701  0.53452141  0.44456016     1.05800
H777        H  0.45103928  0.55882855  0.46881575     0.32400
O778        O  0.46086110  0.54993793  0.47778344    -1.30100
H779        H  0.51836480  0.50055197  0.46840981     0.32500
O780        O  0.50823171  0.50868968  0.47763377    -1.31500
C781        C  0.32041007  0.37857501  0.50549014    -0.01700
C782        C  0.33866105  0.37328745  0.49211748    -0.09800
C783        C  0.35770814  0.38665507  0.49170320    -0.18600
C784        C  0.35881293  0.40619024  0.50425554     0.03800
C785        C  0.33999263  0.41164334  0.51743015     0.18000
C786        C  0.32136026  0.39760783  0.51835672    -0.20000
C787        C  0.33958845  0.43137096  0.52917467    -0.21300
C788        C  0.35727228  0.44610027  0.52776097    -0.19800
C789        C  0.37612357  0.44114022  0.51515708     0.19400
C790        C  0.37753508  0.42086610  0.50371828     0.01500
C791        C  0.39759357  0.41629730  0.49227049    -0.14600
C792        C  0.41510094  0.43163463  0.49153903    -0.12300
C793        C  0.41300017  0.45203036  0.50186869     0.01000
C794        C  0.39355878  0.45648621  0.51387891    -0.24400
H795        H  0.33825304  0.35864256  0.48200899     0.09000
H796        H  0.37103405  0.38161281  0.48094232     0.12600
H797        H  0.30714878  0.40196464  0.52847945     0.11300
H798        H  0.32526731  0.43566893  0.53914845     0.12500
H799        H  0.35623504  0.46146377  0.53668446     0.11600
H800        H  0.40025406  0.40098818  0.48382398     0.08600
H801        H  0.43006170  0.42777132  0.48236028     0.11900
H802        H  0.39201214  0.47204070  0.52241313     0.13800
C803        C  0.32605902  0.67916983  0.51277416    -0.01700
C804        C  0.32641407  0.66253507  0.52886883    -0.09800
C805        C  0.34187181  0.64562148  0.52768923    -0.18600
C806        C  0.35763814  0.64494068  0.51033329     0.03800
C807        C  0.35756025  0.66223937  0.49440968     0.18000
C808        C  0.34174164  0.67897060  0.49565465    -0.20000
C809        C  0.37327779  0.66280303  0.47733061    -0.21300
C810        C  0.38931061  0.64659107  0.47579190    -0.19800
C811        C  0.38969313  0.62926643  0.49105782     0.19400
C812        C  0.37361740  0.62789448  0.50832161     0.01500
C813        C  0.37421815  0.60947105  0.52271543    -0.14600
C814        C  0.39050753  0.59346316  0.52036234    -0.12300
C815        C  0.40668895  0.59558343  0.50390523     0.01000
C816        C  0.40620881  0.61332467  0.48923338    -0.24400
H817        H  0.31447544  0.66239454  0.54231822     0.09000
H818        H  0.34113026  0.63347205  0.54070703     0.12600
H819        H  0.34176170  0.69198420  0.48331688     0.11300
H820        H  0.37329672  0.67598802  0.46519609     0.12500
H821        H  0.40146450  0.64758112  0.46254330     0.11600
H822        H  0.36233181  0.60687626  0.53583893     0.08600
H823        H  0.39082886  0.57966546  0.53178023     0.11900
H824        H  0.41874107  0.61464640  0.47633599     0.13800
C825        C  0.65570215  0.38911956  0.50354609    -0.01700
C826        C  0.63919707  0.38587155  0.48745882    -0.09800
C827        C  0.62050784  0.39940532  0.48657621    -0.18600
C828        C  0.61807018  0.41704923  0.50151817     0.03800
C829        C  0.63540915  0.42079302  0.51717886     0.18000
C830        C  0.65366743  0.40653672  0.51842439    -0.20000
C831        C  0.63462152  0.43895435  0.53125204    -0.21300
C832        C  0.61708802  0.45371100  0.52991682    -0.19800
C833        C  0.59945509  0.45014782  0.51513335     0.19400
C834        C  0.59933673  0.43140321  0.50117992     0.01500
C835        C  0.58033040  0.42770508  0.48776044    -0.14600
C836        C  0.56249222  0.44233580  0.48781196    -0.12300
C837        C  0.56323099  0.46127694  0.50080829     0.01000
C838        C  0.58176992  0.46511668  0.51440656    -0.24400
H839        H  0.64060454  0.37259003  0.47567559     0.09000
H840        H  0.60853478  0.39598414  0.47369344     0.12600
H841        H  0.66668438  0.40937998  0.53059187     0.11300
H842        H  0.64787508  0.44199660  0.54309379     0.12500
H843        H  0.61715980  0.46784670  0.54075580     0.11600
H844        H  0.57857670  0.41344506  0.47738881     0.08600
H845        H  0.54818981  0.43901622  0.47733920     0.11900
H846        H  0.58215569  0.47954268  0.52487496     0.13800
C847        C  0.63419404  0.69175015  0.50807839    -0.01700
C848        C  0.61629206  0.69278906  0.52287707    -0.09800
C849        C  0.59971262  0.67654882  0.52282694    -0.18600
C850        C  0.60074375  0.65861126  0.50802220     0.03800
C851        C  0.61941030  0.65737268  0.49362061     0.18000
C852        C  0.63571337  0.67385603  0.49369877    -0.20000
C853        C  0.62176292  0.63971633  0.47911139    -0.21300
C854        C  0.60605968  0.62296372  0.47873357    -0.19800
C855        C  0.58742302  0.62369737  0.49254412     0.19400
C856        C  0.58415890  0.64173041  0.50707626     0.01500
C857        C  0.56438406  0.64206640  0.51982304    -0.14600
C858        C  0.54884719  0.62494793  0.51847459    -0.12300
C859        C  0.55275979  0.60690559  0.50475471     0.01000
C860        C  0.57199335  0.60641176  0.49182098    -0.24400
H861        H  0.61481195  0.70645740  0.53418383     0.09000
H862        H  0.58638977  0.67842491  0.53460868     0.12600
H863        H  0.64970145  0.67272414  0.48240518     0.11300
H864        H  0.63598287  0.63874441  0.46811070     0.12500
H865        H  0.60847742  0.60935547  0.46749629     0.11600
H866        H  0.56036715  0.65538175  0.53078520     0.08600
H867        H  0.53388090  0.62562958  0.52847099     0.11900
H868        H  0.57475577  0.59264378  0.48084043     0.13800
C869        C  0.31662737  0.53345744  0.35382035    -0.01700
C870        C  0.31857744  0.51570773  0.36848370    -0.09800
C871        C  0.33675336  0.51392074  0.38269655    -0.18600
C872        C  0.35400464  0.52979138  0.38256855     0.03800
C873        C  0.35250910  0.54740979  0.36707236     0.18000
C874        C  0.33363365  0.54938167  0.35319235    -0.20000
C875        C  0.36997231  0.56271425  0.36544002    -0.21300
C876        C  0.38882277  0.56089859  0.37890340    -0.19800
C877        C  0.39038805  0.54414970  0.39485209     0.19400
C878        C  0.37275671  0.52859913  0.39713892     0.01500
C879        C  0.37437230  0.51277721  0.41428612    -0.14600
C880        C  0.39266344  0.51236990  0.42849563    -0.12300
C881        C  0.41020461  0.52736599  0.42599960     0.01000
C882        C  0.40916871  0.54311130  0.40895334    -0.24400
H883        H  0.30575406  0.50312581  0.36917448     0.09000
H884        H  0.33696017  0.49963548  0.39327846     0.12600
H885        H  0.33243972  0.56294420  0.34154583     0.11300
H886        H  0.36913176  0.57607924  0.35354412     0.12500
H887        H  0.40208653  0.57292438  0.37711040     0.11600
H888        H  0.36147614  0.50086507  0.41765367     0.08600
H889        H  0.39303158  0.50027027  0.44172664     0.11900
H890        H  0.42248609  0.55511655  0.40731516     0.13800
C891        C  0.47825507  0.69581429  0.35487422    -0.01700
C892        C  0.46213880  0.69435970  0.37159567    -0.09800
C893        C  0.46157151  0.67646051  0.38612978    -0.18600
C894        C  0.47709667  0.65916940  0.38430415     0.03800
C895        C  0.49284121  0.66025664  0.36675184     0.18000
C896        C  0.49353640  0.67862352  0.35252581    -0.20000
C897        C  0.50773548  0.64296146  0.36345612    -0.21300
C898        C  0.50747260  0.62464746  0.37736064    -0.19800
C899        C  0.49279070  0.62346774  0.39534820     0.19400
C900        C  0.47757172  0.64086932  0.39923927     0.01500
C901        C  0.46394347  0.63950136  0.41829078    -0.14600
C902        C  0.46549610  0.62175638  0.43289561    -0.12300
C903        C  0.48023568  0.60450771  0.42885665     0.01000
C904        C  0.49361443  0.60525925  0.40983767    -0.24400
H905        H  0.44996844  0.70726054  0.37363427     0.09000
H906        H  0.44860154  0.67653849  0.39845263     0.12600
H907        H  0.50577918  0.67933270  0.33933921     0.11300
H908        H  0.51962922  0.64356024  0.34996270     0.12500
H909        H  0.51917947  0.61152442  0.37430661     0.11600
H910        H  0.45234729  0.65216702  0.42274126     0.08600
H911        H  0.45499408  0.62148563  0.44749182     0.11900
H912        H  0.50528227  0.59208233  0.40680075     0.13800
C913        C  0.55920288  0.53624225  0.42793788    -0.01700
C914        C  0.57695520  0.55077112  0.43134040    -0.09800
C915        C  0.59450616  0.55191447  0.41633002    -0.18600
C916        C  0.59509410  0.53802824  0.39764216     0.03800
C917        C  0.57714911  0.52299251  0.39448897     0.18000
C918        C  0.55910610  0.52266789  0.40927805    -0.20000
C919        C  0.57776749  0.50785665  0.37711916    -0.21300
C920        C  0.59628160  0.50677556  0.36332482    -0.19800
C921        C  0.61416762  0.52140169  0.36603218     0.19400
C922        C  0.61336546  0.53785419  0.38260296     0.01500
C923        C  0.63101916  0.55330322  0.38355465    -0.14600
C924        C  0.64942302  0.55157012  0.36963408    -0.12300
C925        C  0.65090573  0.53437583  0.35445946     0.01000
C926        C  0.63301251  0.51957115  0.35243480    -0.24400
H927        H  0.57726872  0.56130718  0.44576040     0.09000
H928        H  0.60775629  0.56323823  0.42030482     0.12600
H929        H  0.54550326  0.51110477  0.40689234     0.11300
H930        H  0.56419208  0.49629938  0.37465693     0.12500
H931        H  0.59663820  0.49439606  0.35049044     0.11600
H932        H  0.63106373  0.56698129  0.39480421     0.08600
H933        H  0.66282934  0.56345180  0.37117552     0.11900
H934        H  0.63374035  0.50658399  0.34023209     0.13800
C935        C  0.48723182  0.38872357  0.32950677    -0.01700
C936        C  0.47117349  0.38606453  0.34612552    -0.09800
C937        C  0.47204099  0.39857584  0.36546045    -0.18600
C938        C  0.48884296  0.41465471  0.36863665     0.03800
C939        C  0.50480393  0.41770239  0.35147779     0.18000
C940        C  0.50417086  0.40444529  0.33241257    -0.20000
C941        C  0.52098426  0.43428015  0.35324767    -0.21300
C942        C  0.52123859  0.44834421  0.37138332    -0.19800
C943        C  0.50577622  0.44573575  0.38857528     0.19400
C944        C  0.48990709  0.42830986  0.38784881     0.01500
C945        C  0.47570943  0.42540476  0.40634898    -0.14600
C946        C  0.47634886  0.43994615  0.42416509    -0.12300
C947        C  0.49081720  0.45801499  0.42400604     0.01000
C948        C  0.50580456  0.46063885  0.40635900    -0.24400
H949        H  0.45790769  0.37407703  0.34424537     0.09000
H950        H  0.45895661  0.39568146  0.37734790     0.12600
H951        H  0.51648205  0.40685040  0.31947446     0.11300
H952        H  0.53318864  0.43674627  0.34023462     0.12500
H953        H  0.53358533  0.46139043  0.37193824     0.11600
H954        H  0.46395829  0.41201518  0.40756629     0.08600
H955        H  0.46487574  0.43749219  0.43781812     0.11900
H956        H  0.51741143  0.47435773  0.40644892     0.13800
C957        C  0.63108217  0.53358216  0.66672408    -0.01700
C958        C  0.63265312  0.55004619  0.65051898    -0.09800
C959        C  0.61888576  0.54964896  0.63185977    -0.18600
C960        C  0.60280982  0.53281101  0.62898914     0.03800
C961        C  0.60126603  0.51622007  0.64559740     0.18000
C962        C  0.61545412  0.51664600  0.66406167    -0.20000
C963        C  0.58541247  0.49939328  0.64383896    -0.21300
C964        C  0.57062609  0.49891921  0.62612857    -0.19800
C965        C  0.57154465  0.51509160  0.60960994     0.19400
C966        C  0.58795448  0.53202085  0.61049732     0.01500
C967        C  0.58866710  0.54743870  0.59286980    -0.14600
C968        C  0.57342417  0.54632613  0.57541079    -0.12300
C969        C  0.55685575  0.53013581  0.57517518     0.01000
C970        C  0.55600855  0.51451918  0.59223112    -0.24400
H971        H  0.64470699  0.56324800  0.65217599     0.09000
H972        H  0.62104336  0.56291924  0.62017822     0.12600
H973        H  0.61403388  0.50391189  0.67662043     0.11300
H974        H  0.58422571  0.48667423  0.65642367     0.12500
H975        H  0.55833549  0.48584777  0.62538168     0.11600
H976        H  0.60081012  0.56050117  0.59202444     0.08600
H977        H  0.57424728  0.55850172  0.56227368     0.11900
H978        H  0.54328878  0.50180197  0.59185324     0.13800
C979        C  0.48638899  0.38488998  0.66803452    -0.01700
C980        C  0.47379627  0.37907377  0.64939869    -0.09800
C981        C  0.47471716  0.39167982  0.62999604    -0.18600
C982        C  0.48792690  0.41095982  0.62882955     0.03800
C983        C  0.50028958  0.41702300  0.64803886     0.18000
C984        C  0.49978902  0.40375983  0.66717425    -0.20000
C985        C  0.51276789  0.43649195  0.64819364    -0.21300
C986        C  0.51301191  0.45028140  0.62978514    -0.19800
C987        C  0.50122972  0.44469206  0.61056874     0.19400
C988        C  0.48888719  0.42473943  0.60956267     0.01500
C989        C  0.47795850  0.41961683  0.58936815    -0.14600
C990        C  0.47854530  0.43415536  0.57131588    -0.12300
C991        C  0.48980566  0.45425106  0.57291378     0.01000
C992        C  0.50141556  0.45920712  0.59245569    -0.24400
H993        H  0.46332291  0.36453044  0.64976613     0.09000
H994        H  0.46454298  0.38616101  0.61636530     0.12600
H995        H  0.50932898  0.40848301  0.68169303     0.11300
H996        H  0.52211664  0.44127778  0.66279712     0.12500
H997        H  0.52245663  0.46546847  0.63060264     0.11600
H998        H  0.46876506  0.40455716  0.58704008     0.08600
H999        H  0.46950124  0.43001361  0.55633857     0.11900
H1000       H  0.51042110  0.47464512  0.59367000     0.13800
C1001       C  0.32895993  0.53269839  0.65709580    -0.01700
C1002       C  0.34299106  0.55083557  0.65362551    -0.09800
C1003       C  0.35914059  0.55057920  0.63708269    -0.18600
C1004       C  0.36173486  0.53207739  0.62328525     0.03800
C1005       C  0.34735242  0.51376523  0.62677577     0.18000
C1006       C  0.33131757  0.51417185  0.64363941    -0.20000
C1007       C  0.34893834  0.49518497  0.61333667    -0.21300
C1008       C  0.36452045  0.49437753  0.59637276    -0.19800
C1009       C  0.37905817  0.51202328  0.59263231     0.19400
C1010       C  0.37800441  0.53110103  0.60613352     0.01500
C1011       C  0.39339762  0.54829248  0.60194538    -0.14600
C1012       C  0.40922831  0.54645752  0.58524554    -0.12300
C1013       C  0.41004650  0.52770904  0.57210798     0.01000
C1014       C  0.39484109  0.51063423  0.57557542    -0.24400
H1015       H  0.34156607  0.56536994  0.66378439     0.09000
H1016       H  0.36918398  0.56520259  0.63547122     0.12600
H1017       H  0.32045885  0.50007878  0.64607187     0.11300
H1018       H  0.33797201  0.48120451  0.61590005     0.12500
H1019       H  0.36529207  0.47979527  0.58618476     0.11600
H1020       H  0.39385593  0.56325032  0.61137228     0.08600
H1021       H  0.42083561  0.55983714  0.58241507     0.11900
H1022       H  0.39567160  0.49608509  0.56531746     0.13800
C1023       C  0.47619790  0.67673861  0.66258189    -0.01700
C1024       C  0.45921772  0.66087667  0.66179281    -0.09800
C1025       C  0.45878120  0.64511469  0.64498886    -0.18600
C1026       C  0.47531618  0.64488070  0.62826389     0.03800
C1027       C  0.49192079  0.66158544  0.62867110     0.18000
C1028       C  0.49236162  0.67702607  0.64580028    -0.20000
C1029       C  0.50802463  0.66287396  0.61195300    -0.21300
C1030       C  0.50789228  0.64800818  0.59459385    -0.19800
C1031       C  0.49211727  0.63104932  0.59393897     0.19400
C1032       C  0.47593437  0.62885947  0.61105642     0.01500
C1033       C  0.46148277  0.61044616  0.61044192    -0.14600
C1034       C  0.46289965  0.59511584  0.59337696    -0.12300
C1035       C  0.47815850  0.59802510  0.57610005     0.01000
C1036       C  0.49267316  0.61602813  0.57640250    -0.24400
H1037       H  0.44639494  0.66041087  0.67440190     0.09000
H1038       H  0.44518707  0.63347656  0.64538808     0.12600
H1039       H  0.50535888  0.68946496  0.64592164     0.11300
H1040       H  0.52066872  0.67565077  0.61215954     0.12500
H1041       H  0.52040862  0.64961422  0.58174130     0.11600
H1042       H  0.44933223  0.60715848  0.62318831     0.08600
H1043       H  0.45189263  0.58099383  0.59357808     0.11900
H1044       H  0.50489679  0.61793424  0.56329089     0.13800
C1045       C  0.70106881  0.79008051  0.64942040    -0.01700
C1046       C  0.67889436  0.78494257  0.64452393    -0.09800
C1047       C  0.67229240  0.78044621  0.62286396    -0.18600
C1048       C  0.68797370  0.78025775  0.60537685     0.03800
C1049       C  0.71038052  0.78628465  0.61033821     0.18000
C1050       C  0.71663749  0.79153898  0.63221099    -0.20000
C1051       C  0.72660545  0.78584116  0.59368974    -0.21300
C1052       C  0.72133172  0.77847223  0.57248955    -0.19800
C1053       C  0.69964112  0.77158971  0.56731836     0.19400
C1054       C  0.68249501  0.77307280  0.58350655     0.01500
C1055       C  0.66078345  0.76635260  0.57737521    -0.14600
C1056       C  0.65670497  0.75683042  0.55682548    -0.12300
C1057       C  0.67391255  0.75398894  0.54145420     0.01000
C1058       C  0.69517952  0.76227710  0.54640665    -0.24400
H1059       H  0.66671226  0.78367634  0.65772543     0.09000
H1060       H  0.65499366  0.77622053  0.62060406     0.12600
H1061       H  0.73391077  0.79520559  0.63610439     0.11300
H1062       H  0.74368464  0.79049782  0.59729368     0.12500
H1063       H  0.73445554  0.77761311  0.56021188     0.11600
H1064       H  0.64666070  0.76764568  0.58826965     0.08600
H1065       H  0.63999972  0.75100513  0.55320338     0.11900
H1066       H  0.70857601  0.76022038  0.53457531     0.13800
C1067       C  0.70309802  0.68587668  0.74740752    -0.01700
C1068       C  0.71072688  0.66922150  0.76168112    -0.09800
C1069       C  0.70615966  0.64700332  0.75709715    -0.18600
C1070       C  0.69412649  0.64088725  0.73782603     0.03800
C1071       C  0.68648498  0.65802499  0.72368731     0.18000
C1072       C  0.69050517  0.67993506  0.72883342    -0.20000
C1073       C  0.67522209  0.65339838  0.70400027    -0.21300
C1074       C  0.67139473  0.63197570  0.69778213    -0.19800
C1075       C  0.67814652  0.61466924  0.71142195     0.19400
C1076       C  0.68940980  0.61860638  0.73176120     0.01500
C1077       C  0.69501460  0.60008287  0.74496952    -0.14600
C1078       C  0.68896039  0.57869375  0.73838043    -0.12300
C1079       C  0.67757570  0.57525310  0.71832345     0.01000
C1080       C  0.67296732  0.59341422  0.70481012    -0.24400
H1081       H  0.72060301  0.67331134  0.77613825     0.09000
H1082       H  0.71264657  0.63495145  0.76853799     0.12600
H1083       H  0.68428886  0.69247728  0.71764109     0.11300
H1084       H  0.66954373  0.66647325  0.69315001     0.12500
H1085       H  0.66271890  0.62893621  0.68230928     0.11600
H1086       H  0.70348962  0.60174546  0.76066180     0.08600
H1087       H  0.69279086  0.56495451  0.74916699     0.11900
H1088       H  0.66446618  0.59122271  0.68909858     0.13800
C1089       C  0.63087781  0.76572054  0.72619372    -0.01700
C1090       C  0.62501088  0.76057582  0.70434393    -0.09800
C1091       C  0.60299865  0.75540075  0.69879963    -0.18600
C1092       C  0.58611833  0.75472874  0.71515912     0.03800
C1093       C  0.59213371  0.76034624  0.73723470     0.18000
C1094       C  0.61423952  0.76606085  0.74244798    -0.20000
C1095       C  0.57620328  0.75961977  0.75414021    -0.21300
C1096       C  0.55452761  0.75271037  0.74978780    -0.19800
C1097       C  0.54818961  0.74649818  0.72838546     0.19400
C1098       C  0.56374103  0.74788228  0.71063514     0.01500
C1099       C  0.55638430  0.74162913  0.68929883    -0.14600
C1100       C  0.53505347  0.73300795  0.68606550    -0.12300
C1101       C  0.52015301  0.73073835  0.70379589     0.01000
C1102       C  0.52657977  0.73818830  0.72478638    -0.24400
H1103       H  0.63754943  0.76050617  0.69143894     0.09000
H1104       H  0.59988148  0.75151247  0.68167271     0.12600
H1105       H  0.61867136  0.76999118  0.75941058     0.11300
H1106       H  0.58066955  0.76396288  0.77097718     0.12500
H1107       H  0.54274037  0.75183461  0.76335993     0.11600
H1108       H  0.56685149  0.74270325  0.67484481     0.08600
H1109       H  0.53031138  0.72776127  0.66957616     0.11900
H1110       H  0.51511584  0.73656980  0.73858126     0.13800
C1111       C  0.73374259  0.31888838  0.65852736    -0.01700
C1112       C  0.74357749  0.30654019  0.64166311    -0.09800
C1113       C  0.74136624  0.31287711  0.61942091    -0.18600
C1114       C  0.72939700  0.33198999  0.61347280     0.03800
C1115       C  0.72101873  0.34525770  0.63088629     0.18000
C1116       C  0.72297696  0.33848214  0.65301334    -0.20000
C1117       C  0.71023596  0.36501197  0.62615854    -0.21300
C1118       C  0.70661312  0.37146480  0.60440299    -0.19800
C1119       C  0.71317958  0.35803656  0.58688721     0.19400
C1120       C  0.72489682  0.33821596  0.59101239     0.01500
C1121       C  0.73063923  0.32514854  0.57252288    -0.14600
C1122       C  0.72420225  0.33118406  0.55098845    -0.12300
C1123       C  0.71201130  0.35040415  0.54727995     0.01000
C1124       C  0.70719260  0.36399572  0.56528838    -0.24400
H1125       H  0.75228986  0.29148562  0.64561126     0.09000
H1126       H  0.74895784  0.30240802  0.60725674     0.12600
H1127       H  0.71587239  0.34844010  0.66604850     0.11300
H1128       H  0.70419393  0.37536398  0.63939021     0.12500
H1129       H  0.69783693  0.38668152  0.60127698     0.11600
H1130       H  0.73940763  0.30983886  0.57427007     0.08600
H1131       H  0.72811630  0.32040652  0.53733080     0.11900
H1132       H  0.69803055  0.37908136  0.56260472     0.13800
C1133       C  0.63263203  0.31960748  0.76229987    -0.01700
C1134       C  0.62866903  0.34137005  0.75609718    -0.09800
C1135       C  0.60703000  0.34882563  0.75264141    -0.18600
C1136       C  0.58855434  0.33441389  0.75456732     0.03800
C1137       C  0.59263593  0.31242282  0.76148277     0.18000
C1138       C  0.61454803  0.30536644  0.76577623    -0.20000
C1139       C  0.57498010  0.29734160  0.76287655    -0.21300
C1140       C  0.55352810  0.30331341  0.75648667    -0.19800
C1141       C  0.54912452  0.32461895  0.74889089     0.19400
C1142       C  0.56643185  0.34068306  0.74856741     0.01500
C1143       C  0.56104119  0.36210110  0.74127249    -0.14600
C1144       C  0.54001436  0.36679149  0.73272607    -0.12300
C1145       C  0.52345965  0.35057415  0.73171664     0.01000
C1146       C  0.52776916  0.32975002  0.74069460    -0.24400
H1147       H  0.64250788  0.35256755  0.75334669     0.09000
H1148       H  0.60548416  0.36570189  0.74750225     0.12600
H1149       H  0.61765982  0.28839772  0.77029042     0.11300
H1150       H  0.57792792  0.28058027  0.76818643     0.12500
H1151       H  0.54039602  0.29103200  0.75700193     0.11600
H1152       H  0.57284619  0.37547993  0.74136243     0.08600
H1153       H  0.53683266  0.38314105  0.72634308     0.11900
H1154       H  0.51493148  0.31716422  0.74007429     0.13800
C1155       C  0.70532968  0.38485255  0.74289976    -0.01700
C1156       C  0.68492402  0.38875184  0.73224640    -0.09800
C1157       C  0.67654338  0.40990874  0.73011978    -0.18600
C1158       C  0.68843451  0.42818359  0.73840833     0.03800
C1159       C  0.70945116  0.42441424  0.74857962     0.18000
C1160       C  0.71748170  0.40283636  0.75117127    -0.20000
C1161       C  0.72249940  0.44225390  0.75556545    -0.21300
C1162       C  0.71550865  0.46375185  0.75179380    -0.19800
C1163       C  0.69487291  0.46792865  0.74180223     0.19400
C1164       C  0.68061914  0.45012497  0.73599834     0.01500
C1165       C  0.65922621  0.45502157  0.72769590    -0.14600
C1166       C  0.65325107  0.47652129  0.72292243    -0.12300
C1167       C  0.66826357  0.49391583  0.72629007     0.01000
C1168       C  0.68865863  0.48968983  0.73679847    -0.24400
H1169       H  0.67511448  0.37529913  0.72564515     0.09000
H1170       H  0.66095764  0.41143614  0.72135932     0.12600
H1171       H  0.73341055  0.40010226  0.75919807     0.11300
H1172       H  0.73856551  0.43957379  0.76331718     0.12500
H1173       H  0.72637647  0.47718690  0.75658758     0.11600
H1174       H  0.64681828  0.44257872  0.72445748     0.08600
H1175       H  0.63700817  0.47942279  0.71562053     0.11900
H1176       H  0.70020495  0.50309059  0.73986450     0.13800
C1177       C  0.23853089  0.74814347  0.66517332    -0.01700
C1178       C  0.24869343  0.72783333  0.66150981    -0.09800
C1179       C  0.25381915  0.72094066  0.64012908    -0.18600
C1180       C  0.24939221  0.73447354  0.62152842     0.03800
C1181       C  0.23836910  0.75474513  0.62524244     0.18000
C1182       C  0.23265137  0.76118401  0.64691036    -0.20000
C1183       C  0.23406896  0.76892747  0.60742082    -0.21300
C1184       C  0.24112117  0.76379172  0.58609111    -0.19800
C1185       C  0.25239501  0.74418426  0.58193114     0.19400
C1186       C  0.25626479  0.72902794  0.59954336     0.01500
C1187       C  0.26730845  0.70928949  0.59446603    -0.14600
C1188       C  0.27499559  0.70521707  0.57313282    -0.12300
C1189       C  0.27199814  0.72052189  0.55590635     0.01000
C1190       C  0.26022418  0.73982840  0.56035150    -0.24400
H1191       H  0.25331905  0.71744735  0.67540266     0.09000
H1192       H  0.26198221  0.70529719  0.63886922     0.12600
H1193       H  0.22503320  0.77703344  0.64967342     0.11300
H1194       H  0.22567754  0.78439479  0.61008780     0.12500
H1195       H  0.23795292  0.77538271  0.57278385     0.11600
H1196       H  0.27047330  0.69667386  0.60662253     0.08600
H1197       H  0.28366492  0.68994410  0.57025639     0.11900
H1198       H  0.25771045  0.75176757  0.54721034     0.13800
C1199       C  0.33697050  0.74846783  0.76805093    -0.01700
C1200       C  0.35522081  0.76220598  0.77233600    -0.09800
C1201       C  0.37681433  0.75574883  0.76644652    -0.18600
C1202       C  0.38062721  0.73529538  0.75600548     0.03800
C1203       C  0.36216489  0.72076198  0.75362505     0.18000
C1204       C  0.34071202  0.72743934  0.75963204    -0.20000
C1205       C  0.36492554  0.70008070  0.74408410    -0.21300
C1206       C  0.38541484  0.69393603  0.73556220    -0.19800
C1207       C  0.40358136  0.70840506  0.73617893     0.19400
C1208       C  0.40168943  0.72908693  0.74687745     0.01500
C1209       C  0.42064935  0.74299644  0.74693830    -0.14600
C1210       C  0.44021229  0.73703171  0.73594853    -0.12300
C1211       C  0.44158816  0.71705666  0.72456611     0.01000
C1212       C  0.42335620  0.70260218  0.72530898    -0.24400
H1213       H  0.35263560  0.77851677  0.77889260     0.09000
H1214       H  0.39002969  0.76740734  0.76949960     0.12600
H1215       H  0.32658589  0.71666891  0.75653811     0.11300
H1216       H  0.35093825  0.68884496  0.74252722     0.12500
H1217       H  0.38682943  0.67805528  0.72768031     0.11600
H1218       H  0.42066654  0.75884736  0.75478988     0.08600
H1219       H  0.45407184  0.74849923  0.73575930     0.11900
H1220       H  0.42429303  0.68698300  0.71682552     0.13800
C1221       C  0.28639654  0.57477916  0.71111028    -0.01700
C1222       C  0.26768161  0.57811076  0.72449975    -0.09800
C1223       C  0.26226886  0.59923019  0.73182244    -0.18600
C1224       C  0.27548664  0.61771265  0.72586445     0.03800
C1225       C  0.29498537  0.61396156  0.71317914     0.18000
C1226       C  0.30019793  0.59280257  0.70605906    -0.20000
C1227       C  0.30910083  0.63138392  0.70727262    -0.21300
C1228       C  0.30408652  0.65269819  0.71336479    -0.19800
C1229       C  0.28469212  0.65713908  0.72527658     0.19400
C1230       C  0.27008399  0.63976529  0.73176661     0.01500
C1231       C  0.25057118  0.64533206  0.74350271    -0.14600
C1232       C  0.24585008  0.66716477  0.74857956    -0.12300
C1233       C  0.26031970  0.68419378  0.74211476     0.01000
C1234       C  0.27975555  0.67897579  0.73051062    -0.24400
H1235       H  0.25685297  0.56448092  0.72885689     0.09000
H1236       H  0.24752440  0.60059810  0.74188117     0.12600
H1237       H  0.31501369  0.59052167  0.69609072     0.11300
H1238       H  0.32407620  0.62852449  0.69771121     0.12500
H1239       H  0.31531158  0.66584745  0.70844609     0.11600
H1240       H  0.23852687  0.63322145  0.74879822     0.08600
H1241       H  0.23061990  0.67071068  0.75744852     0.11900
H1242       H  0.29113759  0.69195951  0.72546877     0.13800
C1243       C  0.25731459  0.34594760  0.54600350    -0.01700
C1244       C  0.24308152  0.32789171  0.54943487    -0.09800
C1245       C  0.23483228  0.32292505  0.57068614    -0.18600
C1246       C  0.24065661  0.33591339  0.58928209     0.03800
C1247       C  0.25399389  0.35490362  0.58536295     0.18000
C1248       C  0.26199471  0.35972838  0.56401832    -0.20000
C1249       C  0.26006252  0.36862826  0.60291744    -0.21300
C1250       C  0.25426267  0.36329841  0.62455688    -0.19800
C1251       C  0.24221364  0.34410844  0.62922483     0.19400
C1252       C  0.23458743  0.33043010  0.61168522     0.01500
C1253       C  0.22201968  0.31150646  0.61753945    -0.14600
C1254       C  0.21840440  0.30579648  0.63984524    -0.12300
C1255       C  0.22726874  0.31863458  0.65699094     0.01000
C1256       C  0.23857525  0.33811111  0.65146570    -0.24400
H1257       H  0.23901632  0.31702695  0.53584477     0.09000
H1258       H  0.22447724  0.30847622  0.57218322     0.12600
H1259       H  0.27262438  0.37399756  0.56161891     0.11300
H1260       H  0.26998317  0.38327933  0.59997224     0.12500
H1261       H  0.25984277  0.37394429  0.63782323     0.11600
H1262       H  0.21529440  0.30051391  0.60525040     0.08600
H1263       H  0.20953871  0.29071312  0.64367553     0.11900
H1264       H  0.24522039  0.34834313  0.66460772     0.13800
C1265       C  0.27358716  0.49426065  0.70246938    -0.01700
C1266       C  0.26555824  0.49056891  0.72392787    -0.09800
C1267       C  0.25875856  0.46952387  0.73060034    -0.18600
C1268       C  0.25989769  0.45147907  0.71590493     0.03800
C1269       C  0.26702538  0.45567131  0.69382872     0.18000
C1270       C  0.27348937  0.47686116  0.68732972    -0.20000
C1271       C  0.26855700  0.43855636  0.67853428    -0.21300
C1272       C  0.26400631  0.41708394  0.68491386    -0.19800
C1273       C  0.25759028  0.41225092  0.70667809     0.19400
C1274       C  0.25491357  0.42937413  0.72239598     0.01500
C1275       C  0.24777275  0.42350316  0.74398181    -0.14600
C1276       C  0.24400153  0.40154873  0.74979766    -0.12300
C1277       C  0.24745396  0.38475822  0.73443715     0.01000
C1278       C  0.25405458  0.39028300  0.71284793    -0.24400
H1279       H  0.26547077  0.50375115  0.73590562     0.09000
H1280       H  0.25335203  0.46779166  0.74753844     0.12600
H1281       H  0.27938511  0.47961290  0.67054998     0.11300
H1282       H  0.27386702  0.44172550  0.66164609     0.12500
H1283       H  0.26581265  0.40412365  0.67280894     0.11600
H1284       H  0.24501157  0.43546929  0.75675656     0.08600
H1285       H  0.23872641  0.39766568  0.76653409     0.11900
H1286       H  0.25632456  0.37741046  0.70070920     0.13800
C1287       C  0.33143476  0.31468767  0.75542612    -0.01700
C1288       C  0.34911145  0.30353440  0.76564310    -0.09800
C1289       C  0.37132524  0.30873262  0.76018295    -0.02400
C1290       C  0.37635936  0.32512183  0.74411049     0.03800
C1291       C  0.35819840  0.33647788  0.73428287     0.18000
C1292       C  0.33631790  0.33154900  0.74032678    -0.20000
C1293       C  0.36175113  0.35234730  0.71785819    -0.21300
C1294       C  0.38306733  0.35707785  0.71056749    -0.19800
C1295       C  0.40140863  0.34645224  0.71991214     0.19400
C1296       C  0.39852920  0.33055410  0.73704677     0.01500
C1297       C  0.41796817  0.32103730  0.74625138    -0.14600
C1298       C  0.43926362  0.32719018  0.73872429    -0.12300
C1299       C  0.44179954  0.34269483  0.72160144     0.01000
C1300       C  0.42267717  0.35202736  0.71225586    -0.24400
H1301       H  0.34576801  0.29031857  0.77727160     0.09000
H1302       H  0.38416520  0.29929599  0.76827532     0.12600
H1303       H  0.32283287  0.34050532  0.73247764     0.11300
H1304       H  0.34787615  0.36093036  0.71029574     0.12500
H1305       H  0.38522976  0.36929089  0.69760274     0.11600
H1306       H  0.41720099  0.30906996  0.75946565     0.08600
H1307       H  0.45376700  0.31978191  0.74633727     0.11900
H1308       H  0.42427778  0.36425474  0.69921972     0.13800
C1309       C  0.14937205  0.17620057  0.00290543    -0.01700
C1310       C  0.13162865  0.18169006  0.01682556    -0.09800
C1311       C  0.11198543  0.16922519  0.01696882    -0.18600
C1312       C  0.10969179  0.15040265  0.00349910     0.03800
C1313       C  0.12790458  0.14485431  0.98952354     0.18000
C1314       C  0.14729434  0.15791679  0.98909550    -0.20000
C1315       C  0.12683096  0.12609616  0.97628985    -0.21300
C1316       C  0.10828448  0.11237607  0.97697996    -0.19800
C1317       C  0.09020932  0.11720776  0.99070558     0.19400
C1318       C  0.09032362  0.13653587  0.00380122     0.01500
C1319       C  0.07117055  0.14085842  0.01678937    -0.14600
C1320       C  0.05312945  0.12612354  0.01735779    -0.12300
C1321       C  0.05373180  0.10660296  0.00523475     0.01000
C1322       C  0.07216774  0.10250406  0.99167198    -0.24400
H1323       H  0.13287552  0.19586760  0.02753608     0.09000
H1324       H  0.09908311  0.17447745  0.02811594     0.12600
H1325       H  0.16106023  0.15352410  0.97839446     0.11300
H1326       H  0.14061018  0.12179032  0.96559364     0.12500
H1327       H  0.10816512  0.09774206  0.96683030     0.11600
H1328       H  0.06969628  0.15539997  0.02676618     0.08600
H1329       H  0.03895012  0.12970174  0.02779833     0.11900
H1330       H  0.07252845  0.08763174  0.98186121     0.13800
C1331       C  0.21005413  0.21157887  0.96172193    -0.01700
C1332       C  0.20433171  0.19832934  0.94360481    -0.09800
C1333       C  0.21129100  0.20350996  0.92224930    -0.18600
C1334       C  0.22432956  0.22238953  0.91796039     0.03800
C1335       C  0.23050393  0.23577920  0.93625400     0.18000
C1336       C  0.22370229  0.23007044  0.95800011    -0.20000
C1337       C  0.24251706  0.25525509  0.93250718    -0.21300
C1338       C  0.24752416  0.26219871  0.91096916    -0.19800
C1339       C  0.24121237  0.24954282  0.89262590     0.19400
C1340       C  0.23037900  0.22898426  0.89600163     0.01500
C1341       C  0.22542589  0.21615658  0.87715572    -0.14600
C1342       C  0.22881157  0.22437733  0.85585575    -0.12300
C1343       C  0.23776014  0.24538943  0.85244106     0.01000
C1344       C  0.24489858  0.25755924  0.87089456    -0.24400
H1345       H  0.19392892  0.18389020  0.94579747     0.09000
H1346       H  0.20546061  0.19272465  0.90937175     0.12600
H1347       H  0.22802854  0.24063210  0.97177522     0.11300
H1348       H  0.24737069  0.26559779  0.94627652     0.12500
H1349       H  0.25607686  0.27775271  0.90863108     0.11600
H1350       H  0.21852386  0.19982827  0.87824768     0.08600
H1351       H  0.22388208  0.21435781  0.84186601     0.11900
H1352       H  0.25218598  0.27370607  0.86839224     0.13800
C1353       C  0.68853875  0.73118709  0.46321059    -0.01700
C1354       C  0.68496472  0.71474507  0.44731934    -0.09800
C1355       C  0.69102694  0.71780965  0.42532314    -0.18600
C1356       C  0.70112782  0.73753447  0.41822013     0.03800
C1357       C  0.70691115  0.75331767  0.43459138     0.18000
C1358       C  0.70037900  0.75016731  0.45689983    -0.20000
C1359       C  0.71867841  0.77229657  0.42838849    -0.21300
C1360       C  0.72428896  0.77611540  0.40625592    -0.19800
C1361       C  0.71753415  0.76147462  0.38965003     0.19400
C1362       C  0.70557939  0.74210539  0.39542132     0.01500
C1363       C  0.69782603  0.72851147  0.37807456    -0.14600
C1364       C  0.70215400  0.73368505  0.35596968    -0.12300
C1365       C  0.71447969  0.75246952  0.35022941     0.01000
C1366       C  0.72221431  0.76627749  0.36725229    -0.24400
H1367       H  0.67670660  0.69946596  0.45166625     0.09000
H1368       H  0.68754308  0.70437956  0.41426638     0.12600
H1369       H  0.70377315  0.76279395  0.46905931     0.11300
H1370       H  0.72349560  0.78430917  0.44071180     0.12500
H1371       H  0.73341191  0.79095336  0.40202135     0.11600
H1372       H  0.68785401  0.71401882  0.38097859     0.08600
H1373       H  0.69582146  0.72276415  0.34328853     0.11900
H1374       H  0.73148350  0.78105067  0.36307348     0.13800
C1375       C  0.51860283  0.74197956  0.30145734    -0.01700
C1376       C  0.53356294  0.72472118  0.29830302    -0.09800
C1377       C  0.55525116  0.72872550  0.29137365    -0.18600
C1378       C  0.56293352  0.75034323  0.28759917     0.03800
C1379       C  0.54714684  0.76761871  0.28810387     0.18000
C1380       C  0.52506783  0.76335683  0.29517045    -0.20000
C1381       C  0.55385592  0.78899045  0.28231550    -0.21300
C1382       C  0.57604311  0.79355490  0.27676552    -0.19800
C1383       C  0.59226506  0.77706777  0.27784017     0.19400
C1384       C  0.58582387  0.75531400  0.28367713     0.01500
C1385       C  0.60267154  0.73952467  0.28650013    -0.14600
C1386       C  0.62488470  0.74476927  0.28284648    -0.12300
C1387       C  0.63142986  0.76590338  0.27603497     0.01000
C1388       C  0.61493092  0.78211498  0.27360708    -0.24400
H1389       H  0.52871103  0.70793411  0.30199329     0.09000
H1390       H  0.56568813  0.71453470  0.28935150     0.12600
H1391       H  0.51341988  0.77676745  0.29695171     0.11300
H1392       H  0.54192195  0.80227690  0.28224211     0.12500
H1393       H  0.58067843  0.81023330  0.27236808     0.11600
H1394       H  0.59932323  0.72302446  0.29214773     0.08600
H1395       H  0.63700537  0.73185124  0.28518270     0.11900
H1396       H  0.61971019  0.79863083  0.26873251     0.13800
C1397       C  0.74186114  0.67582781  0.28474206    -0.01700
C1398       C  0.74737682  0.65879603  0.27028282    -0.09800
C1399       C  0.74477833  0.63678916  0.27674789    -0.18600
C1400       C  0.73679109  0.63115566  0.29811735     0.03800
C1401       C  0.73292588  0.64858816  0.31324529     0.18000
C1402       C  0.73518521  0.67058677  0.30637962    -0.20000
C1403       C  0.72601970  0.64401480  0.33492135    -0.21300
C1404       C  0.72162301  0.62257130  0.34159476    -0.19800
C1405       C  0.72361084  0.60520360  0.32663938     0.19400
C1406       C  0.73167336  0.60905577  0.30481675     0.01500
C1407       C  0.73308585  0.59076168  0.29042740    -0.14600
C1408       C  0.72534291  0.56991852  0.29699590    -0.12300
C1409       C  0.71615332  0.56666330  0.31808078     0.01000
C1410       C  0.71630040  0.58420275  0.33307186    -0.24400
H1411       H  0.75264787  0.66251004  0.25350600     0.09000
H1412       H  0.74873146  0.62456012  0.26454494     0.12600
H1413       H  0.73116760  0.68373023  0.31774079     0.11300
H1414       H  0.72342505  0.65718153  0.34664165     0.12500
H1415       H  0.71569684  0.61966482  0.35832427     0.11600
H1416       H  0.73915575  0.59226612  0.27368400     0.08600
H1417       H  0.72535884  0.55665847  0.28510481     0.11900
H1418       H  0.70941973  0.58179234  0.34953014     0.13800
C1419       C  0.71213396  0.34650490  0.46481609    -0.01700
C1420       C  0.72570972  0.32795239  0.46293304    -0.09800
C1421       C  0.73263431  0.32065277  0.44198852    -0.18600
C1422       C  0.72608495  0.33181042  0.42234266     0.03800
C1423       C  0.71329399  0.35122191  0.42470378     0.18000
C1424       C  0.70668642  0.35833111  0.44562057    -0.20000
C1425       C  0.70646988  0.36324785  0.40613971    -0.21300
C1426       C  0.71126147  0.35596631  0.38501799    -0.19800
C1427       C  0.72297937  0.33647477  0.38195211     0.19400
C1428       C  0.73103983  0.32425704  0.40044249     0.01500
C1429       C  0.74299737  0.30476715  0.39603917    -0.14600
C1430       C  0.74578277  0.29728120  0.37424328    -0.12300
C1431       C  0.73671577  0.30894887  0.35629921     0.01000
C1432       C  0.72594855  0.32883362  0.36035014    -0.24400
H1433       H  0.73037775  0.31867241  0.47756624     0.09000
H1434       H  0.74264652  0.30601731  0.44161771     0.12600
H1435       H  0.69670221  0.37306339  0.44684234     0.11300
H1436       H  0.69688448  0.37816517  0.40795132     0.12500
H1437       H  0.70527406  0.36539587  0.37095090     0.11600
H1438       H  0.74989412  0.29474685  0.40911145     0.08600
H1439       H  0.75430501  0.28190764  0.37150125     0.11900
H1440       H  0.71925594  0.33821668  0.34655044     0.13800
C1441       C  0.69910624  0.48605518  0.31201618    -0.01700
C1442       C  0.68329044  0.46957597  0.31666678    -0.09800
C1443       C  0.68637166  0.44804260  0.31001700    -0.18600
C1444       C  0.70556851  0.44180952  0.29826054     0.03800
C1445       C  0.72175499  0.45832632  0.29343118     0.18000
C1446       C  0.71842310  0.48027305  0.30029683    -0.20000
C1447       C  0.74111515  0.45272537  0.28184447    -0.21300
C1448       C  0.74472349  0.43115059  0.27505069    -0.19800
C1449       C  0.72909981  0.41454408  0.27968946     0.19400
C1450       C  0.70924609  0.41971673  0.29130499     0.01500
C1451       C  0.69393299  0.40249570  0.29561573    -0.14600
C1452       C  0.69837516  0.38103773  0.28926280    -0.12300
C1453       C  0.71814385  0.37571756  0.27824387     0.01000
C1454       C  0.73330729  0.39271439  0.27312189    -0.24400
H1455       H  0.66813141  0.47319259  0.32561702     0.09000
H1456       H  0.67328342  0.43671042  0.31446169     0.12600
H1457       H  0.73086447  0.49272971  0.29661986     0.11300
H1458       H  0.75358949  0.46510839  0.27804051     0.12500
H1459       H  0.75992455  0.42740355  0.26620371     0.11600
H1460       H  0.67835018  0.40489891  0.30403892     0.08600
H1461       H  0.68614951  0.36846015  0.29319897     0.11900
H1462       H  0.74865765  0.38889430  0.26455649     0.13800
C1463       C  0.63642867  0.31421585  0.25115111    -0.01700
C1464       C  0.61884832  0.30197364  0.24199752    -0.09800
C1465       C  0.59679286  0.30951109  0.24305322    -0.18600
C1466       C  0.59162865  0.32977752  0.25317541     0.03800
C1467       C  0.60976874  0.34265248  0.26126957     0.18000
C1468       C  0.63174472  0.33475915  0.26034197    -0.20000
C1469       C  0.60584823  0.36306258  0.27097114    -0.21300
C1470       C  0.58423966  0.37044519  0.27407198    -0.19800
C1471       C  0.56596309  0.35758185  0.26763931     0.19400
C1472       C  0.56922399  0.33738715  0.25646846     0.01500
C1473       C  0.54987845  0.32540585  0.25011085    -0.14600
C1474       C  0.52840189  0.33233803  0.25630591    -0.12300
C1475       C  0.52556766  0.35146810  0.26881242     0.01000
C1476       C  0.54445924  0.36442270  0.27339737    -0.24400
H1477       H  0.62206632  0.28610589  0.23468036     0.09000
H1478       H  0.58407313  0.29895344  0.23622298     0.12600
H1479       H  0.64527747  0.34452181  0.26714617     0.11300
H1480       H  0.61958723  0.37311044  0.27684352     0.12500
H1481       H  0.58179751  0.38601438  0.28231985     0.11600
H1482       H  0.55091309  0.31019684  0.24111822     0.08600
H1483       H  0.51414311  0.32213590  0.25225975     0.11900
H1484       H  0.54256007  0.37959618  0.28251160     0.13800
C1485       C  0.25100183  0.76481297  0.36467904    -0.01700
C1486       C  0.23547346  0.76753855  0.38176185    -0.09800
C1487       C  0.24116538  0.76315075  0.40383842    -0.18600
C1488       C  0.26280027  0.75599816  0.40966559     0.03800
C1489       C  0.27877347  0.75411708  0.39236930     0.18000
C1490       C  0.27273616  0.75832970  0.37020234    -0.20000
C1491       C  0.30061863  0.74773250  0.39724120    -0.21300
C1492       C  0.30676498  0.74235397  0.41881399    -0.19800
C1493       C  0.29117936  0.74304284  0.43604483     0.19400
C1494       C  0.26905709  0.75019587  0.43187227     0.01500
C1495       C  0.25405654  0.75053184  0.45000527    -0.14600
C1496       C  0.26049332  0.74311983  0.47108632    -0.12300
C1497       C  0.28202157  0.73518584  0.47480727     0.01000
C1498       C  0.29742594  0.73581610  0.45729413    -0.24400
H1499       H  0.21863554  0.77270915  0.37800754     0.09000
H1500       H  0.22820752  0.76538378  0.41594105     0.12600
H1501       H  0.28504430  0.75657727  0.35719275     0.11300
H1502       H  0.31296030  0.74654016  0.38420546     0.12500
H1503       H  0.32370989  0.73707294  0.42194355     0.11600
H1504       H  0.23704725  0.75585128  0.44830118     0.08600
H1505       H  0.24827851  0.74275906  0.48428043     0.11900
H1506       H  0.31424078  0.72991653  0.46000714     0.13800
C1507       C  0.25675778  0.57531215  0.31776729    -0.01700
C1508       C  0.25651487  0.59065008  0.33494052    -0.09800
C1509       C  0.24817916  0.61168702  0.33155246    -0.18600
C1510       C  0.24029708  0.61836554  0.31050001     0.03800
C1511       C  0.23945564  0.60238787  0.29337362     0.18000
C1512       C  0.24737305  0.58094149  0.29723602    -0.20000
C1513       C  0.23155999  0.60819050  0.27229718    -0.21300
C1514       C  0.22529828  0.62970922  0.26760387    -0.19800
C1515       C  0.22688974  0.64601021  0.28382785     0.19400
C1516       C  0.23412212  0.64050174  0.30562302     0.01500
C1517       C  0.23593811  0.65762363  0.32129628    -0.14600
C1518       C  0.23199674  0.67935993  0.31524056    -0.12300
C1519       C  0.22548450  0.68475751  0.29365213     0.01000
C1520       C  0.22223925  0.66798019  0.27816175    -0.24400
H1521       H  0.26316786  0.58642729  0.35111119     0.09000
H1522       H  0.24870548  0.62245585  0.34564001     0.12600
H1523       H  0.24735850  0.56903062  0.28394158     0.11300
H1524       H  0.23070737  0.59611170  0.25919260     0.12500
H1525       H  0.21973815  0.63375153  0.25098240     0.11600
H1526       H  0.24115850  0.65494565  0.33817093     0.08600
H1527       H  0.23449797  0.69215424  0.32742945     0.11900
H1528       H  0.21740837  0.67219149  0.26134446     0.13800
C1529       C  0.43873454  0.75647754  0.31896236    -0.01700
C1530       C  0.43490323  0.76966886  0.30023973    -0.09800
C1531       C  0.41352667  0.77786451  0.29573767    -0.18600
C1532       C  0.39525331  0.77282632  0.30978744     0.03800
C1533       C  0.39958157  0.76015614  0.32914728     0.18000
C1534       C  0.42107456  0.75258487  0.33369049    -0.20000
C1535       C  0.38227954  0.75419964  0.34350739    -0.21300
C1536       C  0.36044455  0.75964748  0.33855798    -0.19800
C1537       C  0.35543608  0.77154121  0.31934052     0.19400
C1538       C  0.37273769  0.77900022  0.30500343     0.01500
C1539       C  0.36654922  0.79171120  0.28627320    -0.14600
C1540       C  0.34406274  0.79558357  0.28132555    -0.12300
C1541       C  0.32718641  0.78677704  0.29475939     0.01000
C1542       C  0.33305689  0.77535848  0.31405876    -0.24400
H1543       H  0.44823216  0.77299176  0.28859559     0.09000
H1544       H  0.41163350  0.78740254  0.28075874     0.12600
H1545       H  0.42377827  0.74269166  0.34843739     0.11300
H1546       H  0.38556717  0.74461451  0.35833546     0.12500
H1547       H  0.34732629  0.75416869  0.34965353     0.11600
H1548       H  0.37868282  0.79849659  0.27496271     0.08600
H1549       H  0.33985213  0.80459540  0.26638314     0.11900
H1550       H  0.32004614  0.76886023  0.32475212     0.13800
C1551       C  0.05377346  0.02751710  0.07867153    -0.01700
C1552       C  0.06887484  0.01015303  0.07872465    -0.09800
C1553       C  0.08596953  0.00927645  0.09443572    -0.18600
C1554       C  0.08878325  0.02623886  0.11018437     0.03800
C1555       C  0.07352574  0.04403730  0.10962386     0.18000
C1556       C  0.05593723  0.04423876  0.09428149    -0.20000
C1557       C  0.07619128  0.06178739  0.12401727    -0.21300
C1558       C  0.09386162  0.06240485  0.13889954    -0.19800
C1559       C  0.10895157  0.04501890  0.14015657     0.19400
C1560       C  0.10643607  0.02648868  0.12609738     0.01500
C1561       C  0.12168773  0.00904851  0.12862954    -0.14600
C1562       C  0.13883990  0.01013831  0.14422747    -0.12300
C1563       C  0.14149289  0.02862040  0.15775868     0.01000
C1564       C  0.12648522  0.04602967  0.15555407    -0.24400
H1565       H  0.06737299  0.99717440  0.06658326     0.09000
H1566       H  0.09701538  0.99543626  0.09343729     0.12600
H1567       H  0.04435667  0.05784407  0.09391067     0.11300
H1568       H  0.06469506  0.07544768  0.12354827     0.12500
H1569       H  0.09562780  0.07651665  0.14964341     0.11600
H1570       H  0.12067477  0.99422787  0.11900348     0.08600
H1571       H  0.15012226  0.99637716  0.14562890     0.11900
H1572       H  0.12818848  0.06029252  0.16611596     0.13800
C1573       C  0.19754636  0.98958571  0.20125242    -0.01700
C1574       C  0.21107798  0.98678188  0.22001940    -0.09800
C1575       C  0.21902711  0.96586763  0.22589978    -0.18600
C1576       C  0.21347821  0.94708487  0.21317690     0.03800
C1577       C  0.20007459  0.95027901  0.19400422     0.18000
C1578       C  0.19264429  0.97120855  0.18816527    -0.20000
C1579       C  0.19356551  0.93250413  0.18089063    -0.21300
C1580       C  0.19959817  0.91135220  0.18667211    -0.19800
C1581       C  0.21252690  0.90748550  0.20555152     0.19400
C1582       C  0.22012530  0.92520422  0.21890856     0.01500
C1583       C  0.23363466  0.92005109  0.23750543    -0.14600
C1584       C  0.23833429  0.89815003  0.24314400    -0.12300
C1585       C  0.22964837  0.88087117  0.23048083     0.01000
C1586       C  0.21733472  0.88579146  0.21139281    -0.24400
H1587       H  0.21511527  0.00065692  0.23046162     0.09000
H1588       H  0.22905044  0.96479714  0.24070965     0.12600
H1589       H  0.18240157  0.97299202  0.17344779     0.11300
H1590       H  0.18334316  0.93493120  0.16625393     0.12500
H1591       H  0.19389134  0.89787677  0.17641131     0.11600
H1592       H  0.24042940  0.93256807  0.24817066     0.08600
H1593       H  0.24795691  0.89471477  0.25795347     0.11900
H1594       H  0.21087416  0.87252120  0.20126235     0.13800
C1595       C  0.23875272  0.29967153  0.35603133    -0.01700
C1596       C  0.26074697  0.29702053  0.36329898    -0.09800
C1597       C  0.26672140  0.30110801  0.38517359    -0.18600
C1598       C  0.25086519  0.30848858  0.40066673     0.03800
C1599       C  0.22821219  0.30967996  0.39375175     0.18000
C1600       C  0.22230197  0.30516804  0.37153483    -0.20000
C1601       C  0.21181949  0.31600152  0.40891638    -0.21300
C1602       C  0.21754281  0.32182312  0.43054678    -0.19800
C1603       C  0.23986489  0.32194574  0.43745769     0.19400
C1604       C  0.25683350  0.31524126  0.42255542     0.01500
C1605       C  0.27920233  0.31656779  0.42983532    -0.14600
C1606       C  0.28452307  0.32466605  0.45073130    -0.12300
C1607       C  0.26787675  0.33135684  0.46540649     0.01000
C1608       C  0.24547191  0.32950619  0.45887143    -0.24400
H1609       H  0.27361585  0.29205594  0.35181264     0.09000
H1610       H  0.28399062  0.29860351  0.38929880     0.12600
H1611       H  0.20516398  0.30691924  0.36611133     0.11300
H1612       H  0.19447944  0.31674663  0.40392852     0.12500
H1613       H  0.20447137  0.32688699  0.44175526     0.11600
H1614       H  0.29311348  0.31221496  0.41953462     0.08600
H1615       H  0.30193845  0.32593324  0.45536827     0.11900
H1616       H  0.23249996  0.33498010  0.47000495     0.13800
C1617       C  0.32897523  0.32142116  0.24851880    -0.01700
C1618       C  0.33342699  0.34135847  0.25918652    -0.09800
C1619       C  0.35524899  0.34849305  0.26299629    -0.18600
C1620       C  0.37373663  0.33566875  0.25662798     0.03800
C1621       C  0.36931820  0.31575170  0.24517591     0.18000
C1622       C  0.34707852  0.30891516  0.24102263    -0.20000
C1623       C  0.38714394  0.30253408  0.23852791    -0.21300
C1624       C  0.40917042  0.30842038  0.24336458    -0.19800
C1625       C  0.41408470  0.32766263  0.25510480     0.19400
C1626       C  0.39636188  0.34163168  0.26172099     0.01500
C1627       C  0.40200400  0.36073304  0.27367503    -0.14600
C1628       C  0.42401674  0.36538499  0.27946881    -0.12300
C1629       C  0.44157419  0.35146230  0.27351903     0.01000
C1630       C  0.43650488  0.33277890  0.26079826    -0.24400
H1631       H  0.31982623  0.35141634  0.26503435     0.09000
H1632       H  0.35700242  0.36394972  0.27141554     0.12600
H1633       H  0.34387741  0.29336569  0.23292359     0.11300
H1634       H  0.38401788  0.28734963  0.22974548     0.12500
H1635       H  0.42245504  0.29763253  0.23817607     0.11600
H1636       H  0.38975924  0.37233858  0.27918189     0.08600
H1637       H  0.42725206  0.38012260  0.28894902     0.11900
H1638       H  0.44982232  0.32181216  0.25607631     0.13800
C1639       C  0.24042333  0.38423999  0.27861522    -0.01700
C1640       C  0.24645915  0.38841248  0.30058575    -0.09800
C1641       C  0.24845215  0.40978297  0.30837407    -0.18600
C1642       C  0.24487647  0.42803636  0.29426702     0.03800
C1643       C  0.23844730  0.42390465  0.27197495     0.18000
C1644       C  0.23600981  0.40210438  0.26440805    -0.20000
C1645       C  0.23494633  0.44155531  0.25737464    -0.21300
C1646       C  0.23845542  0.46315798  0.26424337    -0.19800
C1647       C  0.24546333  0.46769918  0.28592157     0.19400
C1648       C  0.24824730  0.45015961  0.30135570     0.01500
C1649       C  0.25507065  0.45544027  0.32310109    -0.14600
C1650       C  0.26055536  0.47686321  0.32879328    -0.12300
C1651       C  0.25906695  0.49397513  0.31331321     0.01000
C1652       C  0.25063971  0.48951158  0.29209020    -0.24400
H1653       H  0.24951724  0.37497721  0.31201263     0.09000
H1654       H  0.25320377  0.41133258  0.32549970     0.12600
H1655       H  0.23120443  0.39905129  0.24736081     0.11300
H1656       H  0.22991055  0.43861307  0.24038334     0.12500
H1657       H  0.23612388  0.47637136  0.25237846     0.11600
H1658       H  0.25695689  0.44337307  0.33604965     0.08600
H1659       H  0.26660468  0.47999824  0.34542627     0.11900
H1660       H  0.24942238  0.50271499  0.28003670     0.13800
C1661       C  0.23020649  0.25333210  0.15493622    -0.01700
C1662       C  0.24252427  0.26274538  0.13747710    -0.09800
C1663       C  0.23847933  0.25655780  0.11531560    -0.18600
C1664       C  0.22191066  0.24071369  0.10999932     0.03800
C1665       C  0.20966588  0.23135166  0.12790119     0.18000
C1666       C  0.21395386  0.23755157  0.14975430    -0.20000
C1667       C  0.19295263  0.21578235  0.12409143    -0.21300
C1668       C  0.18802497  0.20910578  0.10280398    -0.19800
C1669       C  0.19967653  0.21781293  0.08474258     0.19400
C1670       C  0.21681243  0.23371327  0.08781038     0.01500
C1671       C  0.22781859  0.24168185  0.06853259    -0.14600
C1672       C  0.22172622  0.23426381  0.04721240    -0.12300
C1673       C  0.20452736  0.21874478  0.04453438     0.01000
C1674       C  0.19393215  0.21056970  0.06358099    -0.24400
H1675       H  0.25509112  0.27510267  0.14090123     0.09000
H1676       H  0.24840700  0.26446051  0.10266390     0.12600
H1677       H  0.20426826  0.22994549  0.16290103     0.11300
H1678       H  0.18356527  0.20868242  0.13772050     0.12500
H1679       H  0.17492661  0.19700044  0.10045712     0.11600
H1680       H  0.24106623  0.25368665  0.06950204     0.08600
H1681       H  0.23030992  0.24084791  0.03285095     0.11900
H1682       H  0.18079823  0.19837088  0.06208924     0.13800
C1683       C  0.18742659  0.07046667  0.21018605    -0.01700
C1684       C  0.20896459  0.07495741  0.21796533    -0.09800
C1685       C  0.21504857  0.09628852  0.22429158    -0.18600
C1686       C  0.19963939  0.11381760  0.22301117     0.03800
C1687       C  0.17752228  0.10880300  0.21616131     0.18000
C1688       C  0.17167820  0.08739207  0.20999060    -0.20000
C1689       C  0.16143463  0.12529327  0.21480457    -0.21300
C1690       C  0.16697945  0.14693221  0.21938404    -0.19800
C1691       C  0.18873649  0.15260946  0.22548762     0.19400
C1692       C  0.20535613  0.13616289  0.22777172     0.01500
C1693       C  0.22696828  0.14293588  0.23435915    -0.14600
C1694       C  0.23184000  0.16508510  0.23823568    -0.12300
C1695       C  0.21547012  0.18119867  0.23544204     0.01000
C1696       C  0.19393850  0.17476233  0.22916615    -0.24400
H1697       H  0.22141469  0.06215436  0.21832115     0.09000
H1698       H  0.23203898  0.09863563  0.22962551     0.12600
H1699       H  0.15483373  0.08403977  0.20433851     0.11300
H1700       H  0.14451121  0.12149130  0.20974060     0.12500
H1701       H  0.15421038  0.15937258  0.21784071     0.11600
H1702       H  0.24045849  0.13153040  0.23659752     0.08600
H1703       H  0.24859206  0.16964702  0.24318991     0.11900
H1704       H  0.18103966  0.18705381  0.22734083     0.13800
C1705       C  0.98389011  0.16607187  0.18193357    -0.01700
C1706       C  0.00226313  0.15280102  0.17724633    -0.09800
C1707       C  0.00259764  0.13966355  0.15834663    -0.18600
C1708       C  0.98457675  0.13959234  0.14319094     0.03800
C1709       C  0.96639902  0.15381190  0.14746922     0.18000
C1710       C  0.96600810  0.16651821  0.16689115    -0.20000
C1711       C  0.94881545  0.15537821  0.13224658    -0.21300
C1712       C  0.94893978  0.14318654  0.11278069    -0.19800
C1713       C  0.96622469  0.12848236  0.10842619     0.19400
C1714       C  0.98404411  0.12610526  0.12385431     0.01500
C1715       C  0.00024917  0.10992028  0.11953992    -0.14600
C1716       C  0.99885753  0.09679359  0.10069996    -0.12300
C1717       C  0.98170368  0.09965679  0.08523843     0.01000
C1718       C  0.96553697  0.11570105  0.08901326    -0.24400
H1719       H  0.01638837  0.15228923  0.18844165     0.09000
H1720       H  0.01737162  0.13000937  0.15587913     0.12600
H1721       H  0.95189324  0.17706864  0.17010416     0.11300
H1722       H  0.93497689  0.16631049  0.13529341     0.12500
H1723       H  0.93519263  0.14496553  0.10124493     0.11600
H1724       H  0.01382793  0.10653697  0.13073713     0.08600
H1725       H  0.01131085  0.08424535  0.09816803     0.11900
H1726       H  0.95192463  0.11756081  0.07731350     0.13800
C1727       C  0.94100740  0.20442070  0.23894814    -0.01700
C1728       C  0.93789197  0.22214093  0.25336427    -0.09800
C1729       C  0.91632922  0.22819295  0.26014429    -0.18600
C1730       C  0.89717391  0.21652248  0.25277579     0.03800
C1731       C  0.90067380  0.19812318  0.23884190     0.18000
C1732       C  0.92221051  0.19237296  0.23216808    -0.20000
C1733       C  0.88263354  0.18561440  0.23122480    -0.21300
C1734       C  0.86097506  0.19134283  0.23650869    -0.19800
C1735       C  0.85675733  0.20978634  0.24948791     0.19400
C1736       C  0.87469078  0.22250148  0.25821398     0.01500
C1737       C  0.86915852  0.24083955  0.27144809    -0.14600
C1738       C  0.84682213  0.24678170  0.27491841    -0.12300
C1739       C  0.82937224  0.23472256  0.26526974     0.01000
C1740       C  0.83456299  0.21593145  0.25309004    -0.24400
H1741       H  0.95207863  0.23169123  0.25896617     0.09000
H1742       H  0.91510264  0.24219620  0.27092385     0.12600
H1743       H  0.92426838  0.17835931  0.22136433     0.11300
H1744       H  0.88527294  0.17145570  0.22075819     0.12500
H1745       H  0.84737476  0.18151974  0.22996906     0.11600
H1746       H  0.88175321  0.25116119  0.27885518     0.08600
H1747       H  0.84324086  0.26142205  0.28435351     0.11900
H1748       H  0.82118224  0.20635578  0.24574087     0.13800
C1749       C  0.02467962  0.20333704  0.24159200    -0.01700
C1750       C  0.02737652  0.22180630  0.25513743    -0.09800
C1751       C  0.04875968  0.22895587  0.26157472    -0.18600
C1752       C  0.06819603  0.21787904  0.25445103     0.03800
C1753       C  0.06517753  0.19854048  0.24167748     0.18000
C1754       C  0.04372403  0.19138229  0.23574680    -0.20000
C1755       C  0.08361460  0.18690676  0.23393196    -0.21300
C1756       C  0.10509056  0.19468034  0.23753214    -0.19800
C1757       C  0.10872099  0.21409276  0.24930466     0.19400
C1758       C  0.09046915  0.22564531  0.25862512     0.01500
C1759       C  0.09541657  0.24473919  0.27107858    -0.14600
C1760       C  0.11739699  0.25259079  0.27310569    -0.12300
C1761       C  0.13505795  0.24182360  0.26263598     0.01000
C1762       C  0.13055599  0.22228888  0.25123871    -0.24400
H1763       H  0.01300758  0.23129422  0.26002671     0.09000
H1764       H  0.04962159  0.24363482  0.27144933     0.12600
H1765       H  0.04196398  0.17681602  0.22561678     0.11300
H1766       H  0.08138887  0.17205760  0.22433152     0.12500
H1767       H  0.11896111  0.18564794  0.23067027     0.11600
H1768       H  0.08259750  0.25410901  0.27912427     0.08600
H1769       H  0.12045978  0.26761541  0.28216636     0.11900
H1770       H  0.14415252  0.21355877  0.24345954     0.13800
C1771       C  0.72590800  0.87113310  0.21995566    -0.01700
C1772       C  0.71839653  0.88753550  0.23432499    -0.09800
C1773       C  0.72218666  0.90986736  0.22940237    -0.18600
C1774       C  0.73355358  0.91638177  0.20981301     0.03800
C1775       C  0.73985946  0.89955802  0.19484176     0.18000
C1776       C  0.73603168  0.87741686  0.20001356    -0.20000
C1777       C  0.75070663  0.90475831  0.17501012    -0.21300
C1778       C  0.75641396  0.92628847  0.17004033    -0.19800
C1779       C  0.75156595  0.94317817  0.18484455     0.19400
C1780       C  0.73966182  0.93870785  0.20474384     0.01500
C1781       C  0.73530498  0.95667974  0.21891392    -0.14600
C1782       C  0.74373367  0.97779909  0.21415675    -0.12300
C1783       C  0.75656734  0.98170345  0.19508348     0.01000
C1784       C  0.75952835  0.96437866  0.18015417    -0.24400
H1785       H  0.71043320  0.88307533  0.24981809     0.09000
H1786       H  0.71652751  0.92164006  0.24140488     0.12600
H1787       H  0.74154607  0.86485647  0.18860438     0.11300
H1788       H  0.75530908  0.89198773  0.16346237     0.12500
H1789       H  0.76531990  0.92966047  0.15476982     0.11600
H1790       H  0.72610327  0.95471652  0.23413805     0.08600
H1791       H  0.74097711  0.99086044  0.22592776     0.11900
H1792       H  0.76900816  0.96712257  0.16509625     0.13800
C1793       C  0.74942013  0.17147992  0.24061804    -0.01700
C1794       C  0.77128722  0.16550937  0.23528836    -0.09800
C1795       C  0.77681942  0.14366027  0.23117400    -0.18600
C1796       C  0.76047693  0.12683131  0.23178588     0.03800
C1797       C  0.73821382  0.13289509  0.23683270     0.18000
C1798       C  0.73298653  0.15495544  0.24166782    -0.20000
C1799       C  0.72123697  0.11699011  0.23641533    -0.21300
C1800       C  0.72575548  0.09538277  0.23038275    -0.19800
C1801       C  0.74749910  0.08889128  0.22526536     0.19400
C1802       C  0.76527895  0.10439814  0.22668556     0.01500
C1803       C  0.78707920  0.09685119  0.22256598    -0.14600
C1804       C  0.79083128  0.07544610  0.21547282    -0.12300
C1805       C  0.77314257  0.06059851  0.21237823     0.01000
C1806       C  0.75153408  0.06718940  0.21811783    -0.24400
H1807       H  0.78433570  0.17785170  0.23440089     0.09000
H1808       H  0.79395761  0.14059289  0.22695744     0.12600
H1809       H  0.71595488  0.15938127  0.24551187     0.11300
H1810       H  0.70420319  0.12142929  0.24019181     0.12500
H1811       H  0.71209989  0.08369310  0.22957932     0.11600
H1812       H  0.80159800  0.10717820  0.22438888     0.08600
H1813       H  0.80778109  0.07067191  0.21174395     0.11900
H1814       H  0.73773585  0.05582543  0.21599252     0.13800
C1815       C  0.81775893  0.02143291  0.15819651    -0.01700
C1816       C  0.83782568  0.03173655  0.16396463    -0.09800
C1817       C  0.85544433  0.03296501  0.14895040    -0.18600
C1818       C  0.85331668  0.02432417  0.12734191     0.03800
C1819       C  0.83251666  0.01476948  0.12124051     0.18000
C1820       C  0.81522624  0.01281252  0.13686133    -0.20000
C1821       C  0.82897440  0.00767414  0.09947730    -0.21300
C1822       C  0.84565838  0.00989752  0.08361835    -0.19800
C1823       C  0.86661310  0.01838122  0.08937297     0.19400
C1824       C  0.87091979  0.02521766  0.11145787     0.01500
C1825       C  0.89278003  0.03224113  0.11679406    -0.14600
C1826       C  0.90948375  0.03298341  0.10073297    -0.12300
C1827       C  0.90495788  0.02706885  0.07877734     0.01000
C1828       C  0.88342346  0.01976456  0.07323571    -0.24400
H1829       H  0.83993587  0.03881289  0.18028074     0.09000
H1830       H  0.87029070  0.04130630  0.15454571     0.12600
H1831       H  0.79945703  0.00537903  0.13216018     0.11300
H1832       H  0.81307750  0.00065631  0.09460425     0.12500
H1833       H  0.84229082  0.00453229  0.06683447     0.11600
H1834       H  0.89761665  0.03684729  0.13334578     0.08600
H1835       H  0.92598839  0.03850661  0.10551465     0.11900
H1836       H  0.87982274  0.01469032  0.05639467     0.13800
C1837       C  0.12999458  0.77813581  0.22607610    -0.01700
C1838       C  0.11158147  0.77053996  0.23816847    -0.09800
C1839       C  0.08986938  0.77354321  0.23000773    -0.18600
C1840       C  0.08608856  0.78414260  0.20936310     0.03800
C1841       C  0.10507567  0.79076476  0.19685621     0.18000
C1842       C  0.12657199  0.78773179  0.20525733    -0.20000
C1843       C  0.10261957  0.80102450  0.17624225    -0.21300
C1844       C  0.08162784  0.80567269  0.16799215    -0.19800
C1845       C  0.06258498  0.80021531  0.18017283     0.19400
C1846       C  0.06434537  0.78900612  0.20083531     0.01500
C1847       C  0.04429008  0.78378052  0.21213653    -0.14600
C1848       C  0.02352959  0.79025775  0.20361154    -0.12300
C1849       C  0.02218940  0.80213817  0.18368626     0.01000
C1850       C  0.04179353  0.80652628  0.17190383    -0.24400
H1851       H  0.11393193  0.76305800  0.25432556     0.09000
H1852       H  0.07639018  0.76781412  0.24035559     0.12600
H1853       H  0.14082910  0.79337180  0.19570344     0.11300
H1854       H  0.11707532  0.80590738  0.16661004     0.12500
H1855       H  0.08030011  0.81404694  0.15214882     0.11600
H1856       H  0.04417866  0.77507926  0.22774300     0.08600
H1857       H  0.00857292  0.78651807  0.21295396     0.11900
H1858       H  0.04095013  0.81530447  0.15623847     0.13800
C1859       C  0.93953562  0.80062085  0.17800003    -0.01700
C1860       C  0.93661304  0.78746281  0.19689830    -0.09800
C1861       C  0.91527204  0.78058266  0.20340417    -0.18600
C1862       C  0.89612840  0.78669582  0.19109545     0.03800
C1863       C  0.89941006  0.79927880  0.17145060     0.18000
C1864       C  0.92084032  0.80599126  0.16514010    -0.20000
C1865       C  0.88124824  0.80556910  0.15836927    -0.21300
C1866       C  0.85968760  0.80018083  0.16467863    -0.19800
C1867       C  0.85575134  0.78841119  0.18424871     0.19400
C1868       C  0.87385438  0.78120655  0.19766083     0.01500
C1869       C  0.86874261  0.76928319  0.21723366    -0.14600
C1870       C  0.84660861  0.76518908  0.22339762    -0.12300
C1871       C  0.82894234  0.77298272  0.21041140     0.01000
C1872       C  0.83368397  0.78430492  0.19072104    -0.24400
H1873       H  0.95078506  0.78296749  0.20706175     0.09000
H1874       H  0.91426492  0.77078765  0.21829543     0.12600
H1875       H  0.92286907  0.81585000  0.15025083     0.11300
H1876       H  0.88371043  0.81503584  0.14329715     0.12500
H1877       H  0.84595202  0.80559230  0.15435190     0.11600
H1878       H  0.88145018  0.76320840  0.22827861     0.08600
H1879       H  0.84329526  0.75655898  0.23879903     0.11900
H1880       H  0.82006336  0.79031194  0.18055538     0.13800
C1881       C  0.98290156  0.85645321  0.13789913    -0.01700
C1882       C  0.00124687  0.87077432  0.13833544    -0.09800
C1883       C  0.00134060  0.89005284  0.12571455    -0.18600
C1884       C  0.98308722  0.89551176  0.11194193     0.03800
C1885       C  0.96510690  0.88027931  0.11053502     0.18000
C1886       C  0.96495973  0.86123799  0.12377324    -0.20000
C1887       C  0.94743799  0.88410073  0.09585489    -0.21300
C1888       C  0.94734203  0.90268477  0.08236895    -0.19800
C1889       C  0.96438437  0.91838717  0.08399005     0.19400
C1890       C  0.98216188  0.91537057  0.09929561     0.01500
C1891       C  0.99796050  0.93257203  0.10159383    -0.14600
C1892       C  0.99656794  0.95160267  0.08863643    -0.12300
C1893       C  0.97977979  0.95380899  0.07272691     0.01000
C1894       C  0.96370769  0.93720643  0.07048484    -0.24400
H1895       H  0.01544793  0.86733282  0.14887768     0.09000
H1896       H  0.01604946  0.90022655  0.12686201     0.12600
H1897       H  0.95090396  0.85000253  0.12290669     0.11300
H1898       H  0.93377182  0.87246366  0.09454308     0.12500
H1899       H  0.93363909  0.90498535  0.07087170     0.11600
H1900       H  0.01135493  0.93193539  0.11350271     0.08600
H1901       H  0.00907846  0.96435240  0.09055204     0.11900
H1902       H  0.95051256  0.93909542  0.05831275     0.13800
C1903       C  0.19451993  0.99438539  0.81237472    -0.01700
C1904       C  0.19379966  0.97850848  0.82924784    -0.09800
C1905       C  0.20013513  0.95695897  0.82524761    -0.18600
C1906       C  0.20727582  0.95044390  0.80400884     0.03800
C1907       C  0.20960754  0.96693124  0.78736131     0.18000
C1908       C  0.20323703  0.98869759  0.79165830    -0.20000
C1909       C  0.21768529  0.96143585  0.76637422    -0.21300
C1910       C  0.22316458  0.93983814  0.76145603    -0.19800
C1911       C  0.22008448  0.92311226  0.77719136     0.19400
C1912       C  0.21187996  0.92813572  0.79864178     0.01500
C1913       C  0.20788642  0.91051518  0.81352225    -0.14600
C1914       C  0.21196755  0.88887175  0.80736746    -0.12300
C1915       C  0.22047936  0.88403388  0.78637650     0.01000
C1916       C  0.22469182  0.90128608  0.77143357    -0.24400
H1917       H  0.18767113  0.98260800  0.84558513     0.09000
H1918       H  0.19900879  0.94575857  0.83908100     0.12600
H1919       H  0.20405115  0.00091539  0.77854482     0.11300
H1920       H  0.21968487  0.97390676  0.75364166     0.12500
H1921       H  0.22935736  0.93610918  0.74504397     0.11600
H1922       H  0.20112487  0.91282335  0.82986744     0.08600
H1923       H  0.20859840  0.87584589  0.81921584     0.11900
H1924       H  0.23100610  0.89766376  0.75503178     0.13800
C1925       C  0.18181173  0.07264581  0.79292544    -0.01700
C1926       C  0.16474601  0.08779116  0.78926371    -0.09800
C1927       C  0.16949236  0.10896177  0.78200665    -0.18600
C1928       C  0.19171254  0.11590365  0.77861502     0.03800
C1929       C  0.20888983  0.09998532  0.78058283     0.18000
C1930       C  0.20376960  0.07841010  0.78745000    -0.20000
C1931       C  0.23112508  0.10605397  0.77690064    -0.21300
C1932       C  0.23675638  0.12780476  0.77227046    -0.19800
C1933       C  0.22029907  0.14401144  0.77138526     0.19400
C1934       C  0.19749701  0.13823553  0.77429131     0.01500
C1935       C  0.18151722  0.15523006  0.77378066    -0.14600
C1936       C  0.18795470  0.17704582  0.77116477    -0.12300
C1937       C  0.21036376  0.18264337  0.76844083     0.01000
C1938       C  0.22648694  0.16607921  0.76814825    -0.24400
H1939       H  0.14757917  0.08348363  0.79288122     0.09000
H1940       H  0.15538756  0.11962015  0.77992072     0.12600
H1941       H  0.21704047  0.06668667  0.79017822     0.11300
H1942       H  0.24430298  0.09401317  0.77817749     0.12500
H1943       H  0.25415942  0.13207534  0.76994427     0.11600
H1944       H  0.16393031  0.15237318  0.77587365     0.08600
H1945       H  0.17527405  0.18965195  0.77111577     0.11900
H1946       H  0.24390682  0.17045937  0.76604656     0.13800
C1947       C  0.13814424  0.03713927  0.85086204    -0.01700
C1948       C  0.11840200  0.04826712  0.84604179    -0.09800
C1949       C  0.10136509  0.04933615  0.86165937    -0.18600
C1950       C  0.10384065  0.03962630  0.88286511     0.03800
C1951       C  0.12431817  0.02899578  0.88784692     0.18000
C1952       C  0.14101904  0.02747216  0.87172249    -0.20000
C1953       C  0.12807002  0.02005501  0.90891350    -0.21300
C1954       C  0.11178710  0.02122338  0.92517033    -0.19800
C1955       C  0.09119398  0.03090843  0.92056451     0.19400
C1956       C  0.08682097  0.04013606  0.89931664     0.01500
C1957       C  0.06546215  0.04908457  0.89536474    -0.14600
C1958       C  0.04911848  0.04866236  0.91175813    -0.12300
C1959       C  0.05357955  0.03961300  0.93265056     0.01000
C1960       C  0.07475773  0.03100743  0.93701320    -0.24400
H1961       H  0.11600241  0.05591524  0.82996308     0.09000
H1962       H  0.08663440  0.05812862  0.85671076     0.12600
H1963       H  0.15651076  0.01916255  0.87555270     0.11300
H1964       H  0.14372501  0.01213250  0.91285735     0.12500
H1965       H  0.11517552  0.01413835  0.94134126     0.11600
H1966       H  0.06067675  0.05612549  0.87966431     0.08600
H1967       H  0.03288453  0.05546359  0.90803259     0.11900
H1968       H  0.07828623  0.02372635  0.95307817     0.13800
C1969       C  0.94655146  0.83672219  0.79372487    -0.01700
C1970       C  0.94329632  0.82426196  0.77451985    -0.09800
C1971       C  0.92187498  0.81686768  0.76865329    -0.18600
C1972       C  0.90306220  0.82181946  0.78191739     0.03800
C1973       C  0.90675166  0.83394586  0.80162628     0.18000
C1974       C  0.92813976  0.84107911  0.80727770    -0.20000
C1975       C  0.88905645  0.83923013  0.81563280    -0.21300
C1976       C  0.86750143  0.83292966  0.81041133    -0.19800
C1977       C  0.86309984  0.82132975  0.79097637     0.19400
C1978       C  0.88072658  0.81548319  0.77641477     0.01500
C1979       C  0.87507753  0.80387109  0.75694234    -0.14600
C1980       C  0.85287611  0.79854311  0.75212399    -0.12300
C1981       C  0.83562577  0.80459885  0.76650283     0.01000
C1982       C  0.84099311  0.81582433  0.78597766    -0.24400
H1983       H  0.95722048  0.82057744  0.76379317     0.09000
H1984       H  0.92051594  0.80752737  0.75358187     0.12600
H1985       H  0.93030618  0.85039522  0.82240163     0.11300
H1986       H  0.89189136  0.84843320  0.83071933     0.12500
H1987       H  0.85413328  0.83736883  0.82156402     0.11600
H1988       H  0.88740769  0.79886792  0.74505092     0.08600
H1989       H  0.84920921  0.78984207  0.73692560     0.11900
H1990       H  0.82786945  0.82045320  0.79734928     0.13800
C1991       C  0.02912201  0.84505969  0.78547472    -0.01700
C1992       C  0.04600047  0.86101577  0.78597662    -0.09800
C1993       C  0.06748630  0.85631807  0.77904053    -0.18600
C1994       C  0.07313868  0.83518303  0.77151850     0.03800
C1995       C  0.05575074  0.81933775  0.76947069     0.18000
C1996       C  0.03385636  0.82439186  0.77640325    -0.20000
C1997       C  0.06057079  0.79846270  0.76111011    -0.21300
C1998       C  0.08234412  0.79286286  0.75532697    -0.19800
C1999       C  0.09996588  0.80781747  0.75820294     0.19400
C2000       C  0.09552712  0.82919939  0.76640511     0.01500
C2001       C  0.11382730  0.84343571  0.77010981    -0.14600
C2002       C  0.13556043  0.83662912  0.76632348    -0.12300
C2003       C  0.14001275  0.81560389  0.75835006     0.01000
C2004       C  0.12211811  0.80134158  0.75380645    -0.24400
H2005       H  0.04269338  0.87733634  0.79218108     0.09000
H2006       H  0.07930236  0.86964378  0.77997976     0.12600
H2007       H  0.02084470  0.81199663  0.77565444     0.11300
H2008       H  0.04746012  0.78629642  0.75926331     0.12500
H2009       H  0.08551004  0.77651148  0.74912476     0.11600
H2010       H  0.11208435  0.85970814  0.77673349     0.08600
H2011       H  0.14913782  0.84782081  0.77010651     0.11900
H2012       H  0.12551441  0.78485556  0.74808266     0.13800
C2013       C  0.98238308  0.96574797  0.92721174    -0.01700
C2014       C  0.00255129  0.95514731  0.92334983    -0.09800
C2015       C  0.00444990  0.94001290  0.90621289    -0.18600
C2016       C  0.98592799  0.93475448  0.89267136     0.03800
C2017       C  0.96520020  0.94498128  0.89739908     0.18000
C2018       C  0.96374102  0.96073439  0.91424970    -0.20000
C2019       C  0.94602830  0.93914775  0.88553426    -0.21300
C2020       C  0.94694962  0.92321847  0.86914965    -0.19800
C2021       C  0.96722740  0.91338982  0.86363901     0.19400
C2022       C  0.98712114  0.91940478  0.87492619     0.01500
C2023       C  0.00736605  0.91001358  0.86774317    -0.14600
C2024       C  0.00769793  0.89476803  0.85054195    -0.12300
C2025       C  0.98791612  0.88820408  0.84009491     0.01000
C2026       C  0.96774439  0.89769147  0.84672010    -0.24400
H2027       H  0.01696727  0.95872643  0.93359068     0.09000
H2028       H  0.02047075  0.93235465  0.90430624     0.12600
H2029       H  0.94800468  0.96871417  0.91767496     0.11300
H2030       H  0.93015030  0.94671446  0.88918023     0.12500
H2031       H  0.93174569  0.91879450  0.86048844     0.11600
H2032       H  0.02326657  0.91436749  0.87484793     0.08600
H2033       H  0.02352962  0.88789400  0.84560483     0.11900
H2034       H  0.95235083  0.89308314  0.83848318     0.13800
C2035       C  0.93798935  0.21510111  0.77957895    -0.01700
C2036       C  0.93541356  0.23126398  0.76311916    -0.09800
C2037       C  0.91410804  0.23664502  0.75493850    -0.18600
C2038       C  0.89465518  0.22602590  0.76311814     0.03800
C2039       C  0.89763701  0.20885147  0.77885909     0.18000
C2040       C  0.91893440  0.20358742  0.78671883    -0.20000
C2041       C  0.87928204  0.19735330  0.78735617    -0.21300
C2042       C  0.85780447  0.20323074  0.78145654    -0.19800
C2043       C  0.85411444  0.22086587  0.76703628     0.19400
C2044       C  0.87235532  0.23223089  0.75711007     0.01500
C2045       C  0.86730445  0.24983810  0.74250716    -0.14600
C2046       C  0.84519658  0.25678224  0.73929736    -0.12300
C2047       C  0.82753120  0.24633339  0.75043172     0.01000
C2048       C  0.83217659  0.22780703  0.76345760    -0.24400
H2049       H  0.94978915  0.24025510  0.75703798     0.09000
H2050       H  0.91327673  0.24953971  0.74265750     0.12600
H2051       H  0.92050189  0.19066265  0.79903903     0.11300
H2052       H  0.88152537  0.18405966  0.79915374     0.12500
H2053       H  0.84394204  0.19438262  0.78885906     0.11600
H2054       H  0.88015547  0.25900545  0.73401116     0.08600
H2055       H  0.84205208  0.27098360  0.72890173     0.11900
H2056       H  0.81862852  0.21922005  0.77172605     0.13800
C2057       C  0.02150717  0.22091842  0.78556388    -0.01700
C2058       C  0.02451356  0.23751543  0.76959405    -0.09800
C2059       C  0.04606030  0.24356474  0.76242615    -0.18600
C2060       C  0.06531707  0.23302267  0.77096652     0.03800
C2061       C  0.06199407  0.21629748  0.78716391     0.18000
C2062       C  0.04049963  0.21050196  0.79413630    -0.20000
C2063       C  0.08014697  0.20533619  0.79654754    -0.21300
C2064       C  0.10172186  0.21076796  0.79046382    -0.19800
C2065       C  0.10573633  0.22719494  0.77470134     0.19400
C2066       C  0.08773023  0.23843307  0.76439036     0.01500
C2067       C  0.09314054  0.25456005  0.74818921    -0.14600
C2068       C  0.11548194  0.25990298  0.74330444    -0.12300
C2069       C  0.13303634  0.24938142  0.75442198     0.01000
C2070       C  0.12785021  0.23265537  0.76963278    -0.24400
H2071       H  0.01021632  0.24595155  0.76273950     0.09000
H2072       H  0.04719998  0.25655687  0.75026277     0.12600
H2073       H  0.03864934  0.19753630  0.80638763     0.11300
H2074       H  0.07765290  0.19255633  0.80888392     0.12500
H2075       H  0.11541060  0.20211962  0.79828469     0.11600
H2076       H  0.08044173  0.26351356  0.73934375     0.08600
H2077       H  0.11898986  0.27286720  0.73144208     0.11900
H2078       H  0.14121552  0.22406674  0.77808765     0.13800
C2079       C  0.97808157  0.17999245  0.84099056    -0.01700
C2080       C  0.99424430  0.18274573  0.85754443    -0.09800
C2081       C  0.99366226  0.17007534  0.87693344    -0.18600
C2082       C  0.97710954  0.15374648  0.88013902     0.03800
C2083       C  0.96119115  0.15054465  0.86292855     0.18000
C2084       C  0.96148445  0.16395848  0.84390708    -0.20000
C2085       C  0.94539651  0.13362357  0.86454359    -0.21300
C2086       C  0.94547133  0.11936219  0.88259857    -0.19800
C2087       C  0.96075460  0.12222205  0.89991231     0.19400
C2088       C  0.97624495  0.13995113  0.89938904     0.01500
C2089       C  0.99021279  0.14295984  0.91811359    -0.14600
C2090       C  0.98969049  0.12817817  0.93597445    -0.12300
C2091       C  0.97553511  0.10987273  0.93552747     0.01000
C2092       C  0.96084352  0.10722509  0.91764008    -0.24400
H2093       H  0.00729379  0.19496403  0.85561462     0.09000
H2094       H  0.00672777  0.17302560  0.88885337     0.12600
H2095       H  0.94914497  0.16143785  0.83099548     0.11300
H2096       H  0.93328001  0.13102585  0.85145606     0.12500
H2097       H  0.93344771  0.10601873  0.88304753     0.11600
H2098       H  0.00169233  0.15657091  0.91940264     0.08600
H2099       H  0.00103613  0.13056495  0.94975190     0.11900
H2100       H  0.94953346  0.09326259  0.91746537     0.13800
C2101       C  0.78871743  0.99198551  0.78412060    -0.01700
C2102       C  0.77049639  0.98907875  0.76981294    -0.09800
C2103       C  0.76569636  0.96833616  0.76078647    -0.18600
C2104       C  0.77895005  0.94980238  0.76603441     0.03800
C2105       C  0.79769786  0.95315874  0.78006809     0.18000
C2106       C  0.80250459  0.97396204  0.78854807    -0.20000
C2107       C  0.81129211  0.93560495  0.78628672    -0.21300
C2108       C  0.80624561  0.91446940  0.77956776    -0.19800
C2109       C  0.78762074  0.91039424  0.76626091     0.19400
C2110       C  0.77399084  0.92794837  0.75868785     0.01500
C2111       C  0.75576401  0.92261326  0.74469279    -0.14600
C2112       C  0.75050313  0.90064829  0.73979835    -0.12300
C2113       C  0.76321060  0.88347291  0.74872681     0.01000
C2114       C  0.78218297  0.88862865  0.76121985    -0.24400
H2115       H  0.75954956  0.00268593  0.76608447     0.09000
H2116       H  0.75118729  0.96713640  0.75028532     0.12600
H2117       H  0.81684483  0.97587563  0.79934552     0.11300
H2118       H  0.82564546  0.93815350  0.79692635     0.12500
H2119       H  0.81676935  0.90113633  0.78519098     0.11600
H2120       H  0.74502926  0.93502465  0.73775719     0.08600
H2121       H  0.73590579  0.89707778  0.72983623     0.11900
H2122       H  0.79247908  0.87548919  0.76772153     0.13800
C2123       C  0.77444557  0.07154043  0.79894467    -0.01700
C2124       C  0.76472986  0.07636844  0.77836989    -0.09800
C2125       C  0.75631992  0.09741202  0.77390364    -0.18600
C2126       C  0.75759521  0.11435812  0.78993068     0.03800
C2127       C  0.76687177  0.10905823  0.81093003     0.18000
C2128       C  0.77480459  0.08790112  0.81526724    -0.20000
C2129       C  0.76904737  0.12511326  0.82732106    -0.21300
C2130       C  0.76347192  0.14677634  0.82288476    -0.19800
C2131       C  0.75508125  0.15281954  0.80211910     0.19400
C2132       C  0.75103647  0.13657093  0.78567446     0.01500
C2133       C  0.74117485  0.14345507  0.76554719    -0.14600
C2134       C  0.73709579  0.16568080  0.76134724    -0.12300
C2135       C  0.74283203  0.18182462  0.77692646     0.01000
C2136       C  0.75124242  0.17514366  0.79754283    -0.24400
H2137       H  0.76420319  0.06407399  0.76547267     0.09000
H2138       H  0.74963143  0.10014610  0.75753346     0.12600
H2139       H  0.78196727  0.08441105  0.83141005     0.11300
H2140       H  0.77593276  0.12105328  0.84344347     0.12500
H2141       H  0.76616935  0.15897054  0.83564998     0.11600
H2142       H  0.73669384  0.13207172  0.75264158     0.08600
H2143       H  0.73006739  0.17028876  0.74545319     0.11900
H2144       H  0.75504129  0.18737669  0.81001280     0.13800
C2145       C  0.82574400  0.02970347  0.84548748    -0.01700
C2146       C  0.82199905  0.04346791  0.86357087    -0.09800
C2147       C  0.83653202  0.04358746  0.88160003    -0.18600
C2148       C  0.85569897  0.03019366  0.88187718     0.03800
C2149       C  0.85930744  0.01608107  0.86352264     0.18000
C2150       C  0.84414324  0.01566102  0.84577357    -0.20000
C2151       C  0.87835479  0.00295889  0.86268291    -0.21300
C2152       C  0.89436865  0.00414066  0.87930718    -0.19800
C2153       C  0.89144785  0.01808608  0.89741621     0.19400
C2154       C  0.87175544  0.03081938  0.89933614     0.01500
C2155       C  0.86912480  0.04376644  0.91856229    -0.14600
C2156       C  0.88562768  0.04446160  0.93484243    -0.12300
C2157       C  0.90533720  0.03262514  0.93232642     0.01000
C2158       C  0.90815492  0.01940957  0.91364905    -0.24400
H2159       H  0.80772490  0.05428128  0.86377329     0.09000
H2160       H  0.83260609  0.05482248  0.89473107     0.12600
H2161       H  0.84714718  0.00501471  0.83174927     0.11300
H2162       H  0.88116643  0.99212070  0.84878524     0.12500
H2163       H  0.90919903  0.99415636  0.87793671     0.11600
H2164       H  0.85447037  0.05340792  0.92163164     0.08600
H2165       H  0.88312360  0.05458947  0.94933261     0.11900
H2166       H  0.92324110  0.00982533  0.91196939     0.13800
C2167       C  0.18595120  0.83465209  0.04933294    -0.01700
C2168       C  0.16879729  0.83585201  0.06505484    -0.09800
C2169       C  0.17197751  0.82876710  0.08674227    -0.18600
C2170       C  0.19266828  0.82028723  0.09370403     0.03800
C2171       C  0.20967505  0.81783070  0.07747917     0.18000
C2172       C  0.20618421  0.82495756  0.05546863    -0.20000
C2173       C  0.23023796  0.80884592  0.08351449    -0.21300
C2174       C  0.23449859  0.80284794  0.10541351    -0.19800
C2175       C  0.21840460  0.80592085  0.12189105     0.19400
C2176       C  0.19719423  0.81459243  0.11625735     0.01500
C2177       C  0.18167778  0.81781549  0.13356988    -0.14600
C2178       C  0.18711339  0.81290792  0.15551424    -0.12300
C2179       C  0.20802699  0.80435492  0.16104445     0.01000
C2180       C  0.22352681  0.80069833  0.14406432    -0.24400
H2181       H  0.15273337  0.84269734  0.06071736     0.09000
H2182       H  0.15793316  0.83043400  0.09767743     0.12600
H2183       H  0.21948667  0.82374262  0.04340726     0.11300
H2184       H  0.24323523  0.80671865  0.07127375     0.12500
H2185       H  0.25068037  0.79615560  0.10957300     0.11600
H2186       H  0.16529808  0.82444677  0.13083703     0.08600
H2187       H  0.17473380  0.81569642  0.16823298     0.11900
H2188       H  0.23979563  0.79414888  0.14815371     0.13800
C2189       C  0.20374791  0.84496379  0.96915071    -0.01700
C2190       C  0.21530819  0.82515289  0.96686732    -0.09800
C2191       C  0.22434382  0.81917038  0.94631447    -0.18600
C2192       C  0.22177828  0.83281901  0.92738073     0.03800
C2193       C  0.21040479  0.85303032  0.93013130     0.18000
C2194       C  0.20210770  0.85903591  0.95081666    -0.20000
C2195       C  0.20644978  0.86689484  0.91204437    -0.21300
C2196       C  0.21280060  0.86079394  0.89094315    -0.19800
C2197       C  0.22385023  0.84098771  0.88752531     0.19400
C2198       C  0.22922277  0.82696046  0.90566837     0.01500
C2199       C  0.24139217  0.80763499  0.90106003    -0.14600
C2200       C  0.24672372  0.80194431  0.87918073    -0.12300
C2201       C  0.23988253  0.81522785  0.86143118     0.01000
C2202       C  0.22902728  0.83495712  0.86584099    -0.24400
H2203       H  0.21672489  0.81391803  0.98076564     0.09000
H2204       H  0.23254494  0.80348706  0.94552504     0.12600
H2205       H  0.19341351  0.87451542  0.95235837     0.11300
H2206       H  0.19774785  0.88229530  0.91412634     0.12500
H2207       H  0.20888267  0.87159152  0.87715106     0.11600
H2208       H  0.24669434  0.79652441  0.91398059     0.08600
H2209       H  0.25524514  0.78663791  0.87607596     0.11900
H2210       H  0.22407049  0.84549398  0.85215079     0.13800
C2211       C  0.05436024  0.96178722  0.00187691    -0.01700
C2212       C  0.05227514  0.94306985  0.01517838    -0.09800
C2213       C  0.06909848  0.92745327  0.01577048    -0.18600
C2214       C  0.08851284  0.92996597  0.00270232     0.03800
C2215       C  0.09004132  0.94852448  0.98839568     0.18000
C2216       C  0.07321806  0.96446956  0.98844989    -0.20000
C2217       C  0.10829336  0.95097974  0.97413783    -0.21300
C2218       C  0.12519223  0.93540955  0.97390216    -0.19800
C2219       C  0.12459976  0.91742228  0.98844712     0.19400
C2220       C  0.10637463  0.91466709  0.00328286     0.01500
C2221       C  0.10703481  0.89700613  0.01849912    -0.14600
C2222       C  0.12493765  0.88267406  0.01895062    -0.12300
C2223       C  0.14271416  0.88517664  0.00416408     0.01000
C2224       C  0.14235308  0.90241720  0.98868266    -0.24400
H2225       H  0.03770463  0.94071052  0.02553233     0.09000
H2226       H  0.06620018  0.91347448  0.02639842     0.12600
H2227       H  0.07460554  0.97882349  0.97780989     0.11300
H2228       H  0.10944274  0.96497128  0.96301165     0.12500
H2229       H  0.13904573  0.93770068  0.96260482     0.11600
H2230       H  0.09427544  0.89408263  0.03070328     0.08600
H2231       H  0.12480974  0.86946194  0.03104480     0.11900
H2232       H  0.15622686  0.90459991  0.97737228     0.13800
C2233       C  0.73088293  0.24273411  0.15977787    -0.01700
C2234       C  0.72189509  0.25571398  0.14275154    -0.09800
C2235       C  0.72444372  0.24974845  0.12048507    -0.18600
C2236       C  0.73597254  0.23041303  0.11460328     0.03800
C2237       C  0.74412803  0.21689155  0.13210560     0.18000
C2238       C  0.74158193  0.22314941  0.15426439    -0.20000
C2239       C  0.75528009  0.19737286  0.12746744    -0.21300
C2240       C  0.75927174  0.19127631  0.10574909    -0.19800
C2241       C  0.75232672  0.20461682  0.08813499     0.19400
C2242       C  0.74024300  0.22419030  0.09212995     0.01500
C2243       C  0.73363195  0.23685045  0.07345277    -0.14600
C2244       C  0.73982831  0.23084813  0.05187516    -0.12300
C2245       C  0.75270031  0.21209774  0.04831841     0.01000
C2246       C  0.75816836  0.19875081  0.06653649    -0.24400
H2247       H  0.71346921  0.27089852  0.14661516     0.09000
H2248       H  0.71750393  0.26071688  0.10824909     0.12600
H2249       H  0.74826967  0.21279606  0.16733598     0.11300
H2250       H  0.76132971  0.18692522  0.14075349     0.12500
H2251       H  0.76835758  0.17625592  0.10272229     0.11600
H2252       H  0.72419120  0.25175528  0.07505723     0.08600
H2253       H  0.73528027  0.24135145  0.03807348     0.11900
H2254       H  0.76772335  0.18391077  0.06399840     0.13800
C2255       C  0.75266267  0.21357353  0.96512751    -0.01700
C2256       C  0.73705262  0.23046719  0.96237262    -0.09800
C2257       C  0.73034974  0.23722404  0.94099440    -0.18600
C2258       C  0.73940781  0.22743325  0.92172645     0.03800
C2259       C  0.75483954  0.21007046  0.92487086     0.18000
C2260       C  0.76077486  0.20310668  0.94616068    -0.20000
C2261       C  0.76511411  0.20013526  0.90677144    -0.21300
C2262       C  0.76112237  0.20759977  0.88546462    -0.19800
C2263       C  0.74618666  0.22470773  0.88163702     0.19400
C2264       C  0.73450205  0.23452155  0.89949510     0.01500
C2265       C  0.71877564  0.25103083  0.89413530    -0.14600
C2266       C  0.71556049  0.25797267  0.87204679    -0.12300
C2267       C  0.72809929  0.24886193  0.85477966     0.01000
C2268       C  0.74310941  0.23204811  0.85986179    -0.24400
H2269       H  0.73044328  0.23884359  0.97669742     0.09000
H2270       H  0.71865897  0.25058189  0.93996941     0.12600
H2271       H  0.77258565  0.18978931  0.94784147     0.11300
H2272       H  0.77688494  0.18688759  0.90915275     0.12500
H2273       H  0.76984314  0.19992586  0.87184592     0.11600
H2274       H  0.70885917  0.25885400  0.90669455     0.08600
H2275       H  0.70370880  0.27089055  0.86856560     0.11900
H2276       H  0.75256121  0.22446095  0.84666679     0.13800
C2277       C  0.90364589  0.10341965  0.00789639    -0.01700
C2278       C  0.90299586  0.12033405  0.02339220    -0.09800
C2279       C  0.88512887  0.13491294  0.02367538    -0.18600
C2280       C  0.86753282  0.13315233  0.00808046     0.03800
C2281       C  0.86876908  0.11626105  0.99194982     0.18000
C2282       C  0.88655369  0.10145114  0.99220922    -0.20000
C2283       C  0.85223950  0.11419217  0.97569464    -0.21300
C2284       C  0.83435484  0.12855846  0.97510649    -0.19800
C2285       C  0.83236820  0.14507314  0.99100036     0.19400
C2286       C  0.84879967  0.14750525  0.00786531     0.01500
C2287       C  0.84553927  0.16397104  0.02396757    -0.14600
C2288       C  0.82669001  0.17726635  0.02342326    -0.12300
C2289       C  0.81075702  0.17493366  0.00663566     0.01000
C2290       C  0.81381281  0.15899007  0.99031901    -0.24400
H2291       H  0.91612993  0.12198817  0.03563173     0.09000
H2292       H  0.88568558  0.14744896  0.03618696     0.12600
H2293       H  0.88723568  0.08841295  0.98004122     0.11300
H2294       H  0.85318296  0.10140254  0.96330610     0.12500
H2295       H  0.82184594  0.12657739  0.96227555     0.11600
H2296       H  0.85699607  0.16673376  0.03744268     0.08600
H2297       H  0.82459801  0.18952858  0.03618580     0.11900
H2298       H  0.80134297  0.15696099  0.97744114     0.13800
C2299       C  0.74428119  0.79450132  0.14454583    -0.01700
C2300       C  0.75170284  0.81584857  0.13969129    -0.09800
C2301       C  0.75642983  0.82232438  0.11800671    -0.18600
C2302       C  0.75427389  0.80748693  0.10019301     0.03800
C2303       C  0.74708949  0.78571760  0.10504995     0.18000
C2304       C  0.74156750  0.77959266  0.12699684    -0.20000
C2305       C  0.74637784  0.77004017  0.08811154    -0.21300
C2306       C  0.75357817  0.77530234  0.06672796    -0.19800
C2307       C  0.76076942  0.79662974  0.06148550     0.19400
C2308       C  0.76014907  0.81323162  0.07795656     0.01500
C2309       C  0.76582536  0.83486335  0.07157787    -0.14600
C2310       C  0.77409665  0.83938535  0.05050785    -0.12300
C2311       C  0.77686305  0.82265127  0.03489838     0.01000
C2312       C  0.76920369  0.80141443  0.04013416    -0.24400
H2313       H  0.75400138  0.82772068  0.15282197     0.09000
H2314       H  0.76254713  0.83886443  0.11587133     0.12600
H2315       H  0.73620478  0.76292112  0.13055513     0.11300
H2316       H  0.74099606  0.75337103  0.09161475     0.12500
H2317       H  0.75365282  0.76256850  0.05425038     0.11600
H2318       H  0.76426506  0.84864631  0.08258324     0.08600
H2319       H  0.77898605  0.85612340  0.04665524     0.11900
H2320       H  0.77076578  0.78842531  0.02802916     0.13800
C2321       C  0.76852162  0.77867479  0.84544716    -0.01700
C2322       C  0.75451478  0.77135135  0.86248815    -0.09800
C2323       C  0.75994873  0.77538795  0.88468391    -0.18600
C2324       C  0.77975101  0.78681159  0.89045122     0.03800
C2325       C  0.79445157  0.79303324  0.87301571     0.18000
C2326       C  0.78870572  0.78899444  0.85086867    -0.20000
C2327       C  0.81446911  0.80395867  0.87767687    -0.21300
C2328       C  0.81990275  0.80961260  0.89928715    -0.19800
C2329       C  0.80536411  0.80463687  0.91674019     0.19400
C2330       C  0.78523698  0.79287559  0.91270738     0.01500
C2331       C  0.77119965  0.78839729  0.93104276    -0.14600
C2332       C  0.77640385  0.79622588  0.95221070    -0.12300
C2333       C  0.79574209  0.80868339  0.95584267     0.01000
C2334       C  0.81048751  0.81215377  0.93810257    -0.24400
H2335       H  0.73878271  0.76343587  0.85860099     0.09000
H2336       H  0.74811087  0.76977394  0.89689362     0.12600
H2337       H  0.79967183  0.79457001  0.83768161     0.11300
H2338       H  0.82580646  0.80856512  0.86445113     0.12500
H2339       H  0.83532756  0.81846719  0.90229132     0.11600
H2340       H  0.75576066  0.77942985  0.92945623     0.08600
H2341       H  0.76473319  0.79325455  0.96557893     0.11900
H2342       H  0.82566222  0.82156197  0.94068883     0.13800
C2343       C  0.83055415  0.86965262  0.99598742    -0.01700
C2344       C  0.82718328  0.88645341  0.01136419    -0.09800
C2345       C  0.84085546  0.90503291  0.01150358    -0.18600
C2346       C  0.85871590  0.90727073  0.99638664     0.03800
C2347       C  0.86202560  0.89019080  0.98076467     0.18000
C2348       C  0.84785354  0.87177550  0.98054278    -0.20000
C2349       C  0.87973259  0.89136243  0.96573403    -0.21300
C2350       C  0.89481345  0.90873783  0.96643943    -0.19800
C2351       C  0.89231321  0.92554846  0.98193373     0.19400
C2352       C  0.87382317  0.92545729  0.99666327     0.01500
C2353       C  0.87150393  0.94341283  0.01125193    -0.14600
C2354       C  0.88739707  0.96018792  0.01183101    -0.12300
C2355       C  0.90615746  0.95949322  0.99815191     0.01000
C2356       C  0.90841251  0.94231394  0.98303130    -0.24400
H2357       H  0.81378536  0.88532684  0.02333633     0.09000
H2358       H  0.83726410  0.91710330  0.02396101     0.12600
H2359       H  0.85062292  0.85883107  0.96860290     0.11300
H2360       H  0.88225879  0.87846830  0.95369781     0.12500
H2361       H  0.90868582  0.90889431  0.95495466     0.11600
H2362       H  0.85765780  0.94498216  0.02245739     0.08600
H2363       H  0.88530820  0.97350653  0.02347439     0.11900
H2364       H  0.92273089  0.94204045  0.97208185     0.13800
loop_ 
_geom_bond_atom_site_label_1 
_geom_bond_atom_site_label_2 
_geom_bond_distance 
_geom_bond_site_symmetry_2 
_ccdc_geom_bond_type 
C1            N2   1.364   1_554  A
C1            N6   1.358       .  A
C1         C2311   1.485       .  S
N2            C3   1.367       .  A
C3            N4   1.359       .  A
C3         C2333   1.485       .  S
N4            C5   1.354       .  A
C5            N6   1.353   1_556  A
C5         C2343   1.478       .  S
C7            N8   1.358       .  A
C7           N12   1.369       .  A
C7         C2245   1.485       .  S
N8            C9   1.349       .  A
C9           N10   1.350   1_554  A
C9         C2289   1.474       .  S
N10          C11   1.360       .  A
C11          N12   1.369   1_556  A
C11        C2255   1.492       .  S
C13          N14   1.354       .  A
C13          N18   1.365       .  A
C13        C2167   1.481       .  S
N14          C15   1.349       .  A
C15          N16   1.351   1_554  A
C15        C2223   1.474       .  S
N16          C17   1.362       .  A
C17          N18   1.367   1_556  A
C17        C2189   1.482       .  S
C19          N20   1.368       .  A
C19          N24   1.357       .  A
C19        C2123   1.487       .  S
N20          C21   1.368       .  A
C21          N22   1.360       .  A
C21        C2101   1.488   1_545  S
N22          C23   1.350       .  A
C23          N24   1.350       .  A
C23        C2145   1.473       .  S
C25          N26   1.371       .  A
C25          N30   1.360       .  A
C25        C2035   1.495       .  S
N26          C27   1.371       .  A
C27          N28   1.361       .  A
C27        C2057   1.495   1_655  S
N28          C29   1.352       .  A
C29          N30   1.352       .  A
C29        C2079   1.481       .  S
C31          N32   1.357       .  A
C31          N36   1.367       .  A
C31        C1969   1.485       .  S
N32          C33   1.349       .  A
C33          N34   1.352   1_655  A
C33        C2025   1.481       .  S
N34          C35   1.362       .  A
C35          N36   1.367   1_455  A
C35        C1991   1.484       .  S
C37          N38   1.362       .  A
C37          N42   1.356       .  A
C37        C1925   1.473       .  S
N38          C39   1.364       .  A
C39          N40   1.358       .  A
C39        C1903   1.478   1_545  S
N40          C41   1.352       .  A
C41          N42   1.350       .  A
C41        C1947   1.467       .  S
C43          N44   1.364       .  A
C43          N48   1.359       .  A
C43        C1859   1.482       .  S
N44          C45   1.363   1_655  A
C45          N46   1.360       .  A
C45        C1849   1.482       .  S
N46          C47   1.354   1_455  A
C47          N48   1.353       .  A
C47        C1881   1.481       .  S
C49          N50   1.368       .  A
C49          N54   1.357       .  A
C49        C1805   1.488       .  S
N50          C51   1.370       .  A
C51          N52   1.363       .  A
C51        C1783   1.494   1_545  S
N52          C53   1.354       .  A
C53          N54   1.351       .  A
C53        C1815   1.475       .  S
C55          N56   1.361       .  A
C55          N60   1.370       .  A
C55        C1727   1.493       .  S
N56          C57   1.353       .  A
C57          N58   1.354   1_655  A
C57        C1705   1.484       .  S
N58          C59   1.360       .  A
C59          N60   1.370   1_455  A
C59        C1749   1.493       .  S
Zr61         O62   2.442       .  S
Zr61         O63   2.444       .  S
Zr61         O64   2.434       .  S
Zr61         O67   2.422       .  S
Zr61         O69   2.373       .  S
Zr61         O70   2.380       .  S
Zr61         O71   2.407       .  S
Zr61         O72   2.397       .  S
O62         H118   0.990       .  S
O62         H126   0.991       .  S
O63          C83   1.287       .  A
O64          C85   1.284       .  A
O65         Zr75   2.448       .  S
O65          C84   1.286       .  A
O66         Zr74   2.466       .  S
O66          C85   1.290       .  A
O67          C84   1.284       .  A
O68         Zr76   2.423       .  S
O68          C83   1.281       .  A
O69         Zr74   2.400       .  S
O69         Zr76   2.383       .  S
O70         Zr75   2.397       .  S
O70         Zr76   2.381       .  S
O70         H105   0.966       .  S
O71         Zr74   2.403       .  S
O71         Zr91   2.398       .  S
O71         H108   0.966       .  S
O72         Zr75   2.394       .  S
O72         Zr91   2.394       .  S
Zr73         O98   2.446       .  S
Zr73         O92   2.426       .  S
Zr73        O100   2.430       .  S
Zr73         O88   2.418       .  S
Zr73         O79   2.399       .  S
Zr73         O80   2.401       .  S
Zr73         O81   2.380       .  S
Zr73         O82   2.374       .  S
Zr74         O93   2.436       .  S
Zr74         O86   2.434       .  S
Zr74         O87   2.464       .  S
Zr74         O80   2.404       .  S
Zr74         O81   2.399       .  S
Zr75         O77   2.436       .  S
Zr75         O99   2.436       .  S
Zr75        O101   2.457       .  S
Zr75         O79   2.398       .  S
Zr75         O82   2.389       .  S
Zr76        O102   2.435       .  S
Zr76        O103   2.436       .  S
Zr76         O78   2.436       .  S
Zr76         O79   2.399       .  S
Zr76         O80   2.390       .  S
O77         H114   0.990       .  S
O78         H109   0.990       .  S
O78         H123   0.990       .  S
O80         H106   0.966       .  S
O81         Zr91   2.372       .  S
O82         Zr91   2.373       .  S
O82         H107   0.966       .  S
C83        C1639   1.483       .  S
C84        C1595   1.481       .  S
C85        C1617   1.492       .  S
O86         H122   0.990       .  S
O87          C89   1.290       .  A
O88          C89   1.285       .  A
C89        C1661   1.494       .  S
O90         Zr91   2.435       .  S
O90         H119   0.990       .  S
Zr91         O94   2.435       .  S
Zr91         O95   2.439       .  S
Zr91         O96   2.430       .  S
O92          C97   1.284       .  A
O93         H110   0.990       .  S
O93         H125   0.990       .  S
O94         H111   0.990       .  S
O95         H115   0.990       .  S
O95         H124   0.990       .  S
O96          C97   1.283       .  A
C97        C1695   1.480       .  S
O98         H117   0.990       .  S
O98         H121   0.991       .  S
O99         H113   0.990       .  S
O99         H120   0.990       .  S
O100        C104   1.285       .  A
O101        C104   1.289       .  A
O102        H112   0.990       .  S
O103        H116   0.990       .  S
C104       C1761   1.488       .  S
C127        N128   1.368       .  A
C127        N132   1.360       .  A
C127       C1683   1.483       .  S
N128        C129   1.366       .  A
C129        N130   1.357       .  A
C129       C1573   1.487   1_545  S
N130        C131   1.350       .  A
C131        N132   1.353       .  A
C131       C1563   1.480       .  S
Zr133       O134   2.438       .  S
Zr133       O135   2.431       .  S
Zr133       O136   2.424       .  S
Zr133       O139   2.422       .  S
Zr133       O141   2.373       .  S
Zr133       O142   2.379       .  S
Zr133       O143   2.406       .  S
Zr133       O144   2.400       .  S
O134        H190   0.991       .  S
O134        H198   0.990       .  S
O135        C155   1.284       .  A
O136        C157   1.284       .  A
O137       Zr147   2.439       .  S
O137        C156   1.286       .  A
O138       Zr146   2.442       .  S
O138        C157   1.286       .  A
O139        C156   1.284       .  A
O140       Zr148   2.438       .  S
O140        C155   1.285       .  A
O141       Zr146   2.398       .  S
O141       Zr148   2.377       .  S
O142       Zr147   2.397       .  S
O142       Zr148   2.370       .  S
O142        H177   0.966       .  S
O143       Zr146   2.404       .  S
O143       Zr163   2.399       .  S
O143        H180   0.964       .  S
O144       Zr147   2.395       .  S
O144       Zr163   2.396       .  S
Zr145       O170   2.439       .  S
Zr145       O164   2.427       .  S
Zr145       O172   2.414       .  S
Zr145       O160   2.410       .  S
Zr145       O151   2.398       .  S
Zr145       O152   2.399       .  S
Zr145       O153   2.375       .  S
Zr145       O154   2.374       .  S
Zr146       O165   2.436       .  S
Zr146       O158   2.435       .  S
Zr146       O159   2.453       .  S
Zr146       O152   2.399       .  S
Zr146       O153   2.392       .  S
Zr147       O149   2.435       .  S
Zr147       O171   2.435       .  S
Zr147       O173   2.449       .  S
Zr147       O151   2.397       .  S
Zr147       O154   2.389       .  S
Zr148       O174   2.436       .  S
Zr148       O175   2.435       .  S
Zr148       O150   2.437       .  S
Zr148       O151   2.401       .  S
Zr148       O152   2.399       .  S
O149        H186   0.990       .  S
O150        H181   0.991       .  S
O150        H195   0.990       .  S
O152        H178   0.965       .  S
O153       Zr163   2.378       .  S
O154       Zr163   2.371       .  S
O154        H179   0.965       .  S
C155       C1485   1.487       .  S
C156       C1519   1.473       .  S
C157       C1541   1.477       .  S
O158        H194   0.990       .  S
O159        C161   1.288       .  A
O160        C161   1.283       .  A
C161       C1585   1.480       .  S
O162       Zr163   2.434       .  S
O162        H191   0.990       .  S
Zr163       O166   2.435       .  S
Zr163       O167   2.438       .  S
Zr163       O168   2.434       .  S
O164        C169   1.284       .  A
O165        H182   0.990       .  S
O165        H197   0.990       .  S
O166        H183   0.989       .  S
O167        H187   0.990       .  S
O167        H196   0.990       .  S
O168        C169   1.284       .  A
C169       C2179   1.483       .  S
O170        H189   0.990       .  S
O170        H193   0.990       .  S
O171        H185   0.990       .  S
O171        H192   0.990       .  S
O172        C176   1.282       .  A
O173        C176   1.287       .  A
O174        H184   0.990       .  S
O175        H188   0.990       .  S
C176       C1837   1.476       .  S
Zr199       O200   2.438       .  S
Zr199       O201   2.432       .  S
Zr199       O202   2.426       .  S
Zr199       O205   2.422       .  S
Zr199       O207   2.375       .  S
Zr199       O208   2.379       .  S
Zr199       O209   2.402       .  S
Zr199       O210   2.400       .  S
O200        H256   0.990       .  S
O200        H264   0.991       .  S
O201        C221   1.285       .  A
O202        C223   1.284       .  A
O203       Zr213   2.443       .  S
O203        C222   1.287       .  A
O204       Zr212   2.458       .  S
O204        C223   1.289       .  A
O205        C222   1.285       .  A
O206       Zr214   2.451       .  S
O206        C221   1.287       .  A
O207       Zr212   2.395       .  S
O207       Zr214   2.378       .  S
O208       Zr213   2.397       .  S
O208       Zr214   2.367       .  S
O208        H243   0.966       .  S
O209       Zr212   2.396       .  S
O209       Zr229   2.396       .  S
O209        H246   0.966       .  S
O210       Zr213   2.393       .  S
O210       Zr229   2.399       .  S
Zr211       O236   2.441       .  S
Zr211       O230   2.429       .  S
Zr211       O238   2.435       .  S
Zr211       O226   2.423       .  S
Zr211       O217   2.401       .  S
Zr211       O218   2.409       .  S
Zr211       O219   2.377       .  S
Zr211       O220   2.375       .  S
Zr212       O231   2.437       .  S
Zr212       O224   2.435       .  S
Zr212       O225   2.445       .  S
Zr212       O218   2.405       .  S
Zr212       O219   2.396       .  S
Zr213       O215   2.435       .  S
Zr213       O237   2.437       .  S
Zr213       O239   2.453       .  S
Zr213       O217   2.394       .  S
Zr213       O220   2.385       .  S
Zr214       O240   2.436       .  S
Zr214       O241   2.436       .  S
Zr214       O216   2.436       .  S
Zr214       O217   2.403       .  S
Zr214       O218   2.411       .  S
O215        H252   0.990       .  S
O216        H247   0.990       .  S
O216        H261   0.990       .  S
O218        H244   0.966       .  S
O219       Zr229   2.375       .  S
O220       Zr229   2.376       .  S
O220        H245   0.966       .  S
C221       C1793   1.491       .  S
C222       C2233   1.481       .  S
C223       C1739   1.486       .  S
O224        H260   0.990       .  S
O225        C227   1.286       .  A
O226        C227   1.285       .  A
C227       C1431   1.482       .  S
O228       Zr229   2.436       .  S
O228        H257   0.990       .  S
Zr229       O232   2.436       .  S
Zr229       O233   2.437       .  S
Zr229       O234   2.443       .  S
O230        C235   1.285       .  A
O231        H248   0.990       .  S
O231        H263   0.990       .  S
O232        H249   0.990       .  S
O233        H253   0.990       .  S
O233        H262   0.990       .  S
O234        C235   1.286       .  A
C235       C1453   1.490       .  S
O236        H255   0.990       .  S
O236        H259   0.990       .  S
O237        H251   0.990       .  S
O237        H258   0.990       .  S
O238        C242   1.286       .  A
O239        C242   1.289       .  A
O240        H250   0.990       .  S
O241        H254   0.990       .  S
C242       C1463   1.488       .  S
Zr265       O266   2.440       .  S
Zr265       O267   2.427       .  S
Zr265       O268   2.429       .  S
Zr265       O271   2.415       .  S
Zr265       O273   2.374       .  S
Zr265       O274   2.380       .  S
Zr265       O275   2.402       .  S
Zr265       O276   2.397       .  S
O266        H322   0.990       .  S
O266        H330   0.991       .  S
O267        C287   1.285       .  A
O268        C289   1.284       .  A
O269       Zr279   2.456       .  S
O269        C288   1.289       .  A
O270       Zr278   2.452       .  S
O270        C289   1.287       .  A
O271        C288   1.285       .  A
O272       Zr280   2.436       .  S
O272        C287   1.284       .  A
O273       Zr278   2.389       .  S
O273       Zr280   2.375       .  S
O274       Zr279   2.397       .  S
O274       Zr280   2.375       .  S
O274        H309   0.965       .  S
O275       Zr278   2.395       .  S
O275       Zr295   2.404       .  S
O275        H312   0.966       .  S
O276       Zr279   2.394       .  S
O276       Zr295   2.396       .  S
Zr277       O302   2.440       .  S
Zr277       O296   2.434       .  S
Zr277       O304   2.422       .  S
Zr277       O292   2.428       .  S
Zr277       O283   2.398       .  S
Zr277       O284   2.405       .  S
Zr277       O285   2.380       .  S
Zr277       O286   2.376       .  S
Zr278       O297   2.437       .  S
Zr278       O290   2.434       .  S
Zr278       O291   2.439       .  S
Zr278       O284   2.400       .  S
Zr278       O285   2.400       .  S
Zr279       O281   2.435       .  S
Zr279       O303   2.438       .  S
Zr279       O305   2.454       .  S
Zr279       O283   2.394       .  S
Zr279       O286   2.396       .  S
Zr280       O306   2.435       .  S
Zr280       O307   2.435       .  S
Zr280       O282   2.438       .  S
Zr280       O283   2.394       .  S
Zr280       O284   2.402       .  S
O281        H318   0.990       .  S
O282        H313   0.991       .  S
O282        H327   0.990       .  S
O284        H310   0.965       .  S
O285       Zr295   2.380       .  S
O286       Zr295   2.381       .  S
O286        H311   0.965       .  S
C287       C1365   1.487       .  S
C288       C1387   1.490       .  S
C289       C1397   1.481       .  S
O290        H326   0.990       .  S
O291        C293   1.286       .  A
O292        C293   1.284       .  A
C293       C1871   1.478       .  S
O294       Zr295   2.436       .  S
O294        H323   0.990       .  S
Zr295       O298   2.436       .  S
Zr295       O299   2.438       .  S
Zr295       O300   2.445       .  S
O296        C301   1.285       .  A
O297        H314   0.991       .  S
O297        H329   0.990       .  S
O298        H315   0.990       .  S
O299        H319   0.990       .  S
O299        H328   0.990       .  S
O300        C301   1.285       .  A
C301       C2299   1.489       .  S
O302        H321   0.990       .  S
O302        H325   0.990       .  S
O303        H317   0.990       .  S
O303        H324   0.990       .  S
O304        C308   1.284       .  A
O305        C308   1.288       .  A
O306        H316   0.990       .  S
O307        H320   0.990       .  S
C308       C1771   1.485       .  S
C331        N332   1.369       .  A
C331        N336   1.360       .  A
C331       C1673   1.494       .  S
N332        C333   1.371   1_554  A
C333        N334   1.361       .  A
C333       C1331   1.489       .  S
N334        C335   1.350   1_556  A
C335        N336   1.349       .  A
C335       C1309   1.478       .  S
Zr337       O338   2.439       .  S
Zr337       O339   2.422       .  S
Zr337       O340   2.419       .  S
Zr337       O343   2.421       .  S
Zr337       O345   2.378       .  S
Zr337       O346   2.376       .  S
Zr337       O347   2.397       .  S
Zr337       O348   2.399       .  S
O338        H394   0.990       .  S
O338        H402   0.990       .  S
O339        C359   1.283       .  A
O340        C361   1.284       .  A
O341       Zr351   2.455       .  S
O341        C360   1.288       .  A
O342       Zr350   2.464       .  S
O342        C361   1.291       .  A
O343        C360   1.285       .  A
O344       Zr352   2.416       .  S
O344        C359   1.280       .  A
O345       Zr350   2.395       .  S
O345       Zr352   2.379       .  S
O346       Zr351   2.385       .  S
O346       Zr352   2.374       .  S
O346        H381   0.966       .  S
O347       Zr350   2.399       .  S
O347       Zr367   2.389       .  S
O347        H384   0.965       .  S
O348       Zr351   2.396       .  S
O348       Zr367   2.402       .  S
Zr349       O374   2.439       .  S
Zr349       O368   2.421       .  S
Zr349       O376   2.405       .  S
Zr349       O364   2.432       .  S
Zr349       O355   2.398       .  S
Zr349       O356   2.399       .  S
Zr349       O357   2.370       .  S
Zr349       O358   2.387       .  S
Zr350       O369   2.436       .  S
Zr350       O362   2.437       .  S
Zr350       O363   2.459       .  S
Zr350       O356   2.405       .  S
Zr350       O357   2.393       .  S
Zr351       O353   2.436       .  S
Zr351       O375   2.436       .  S
Zr351       O377   2.451       .  S
Zr351       O355   2.392       .  S
Zr351       O358   2.406       .  S
Zr352       O378   2.437       .  S
Zr352       O379   2.435       .  S
Zr352       O354   2.435       .  S
Zr352       O355   2.387       .  S
Zr352       O356   2.395       .  S
O353        H390   0.990       .  S
O354        H385   0.990       .  S
O354        H399   0.990       .  S
O356        H382   0.966       .  S
O357       Zr367   2.375       .  S
O358       Zr367   2.381       .  S
O358        H383   0.966       .  S
C359       C1937   1.468       .  S
C360       C1343   1.483       .  S
C361       C2069   1.490       .  S
O362        H398   0.990       .  S
O363        C365   1.289       .  A
O364        C365   1.285       .  A
C365       C1255   1.488       .  S
O366       Zr367   2.440       .  S
O366        H395   0.990       .  S
Zr367       O370   2.437       .  S
Zr367       O371   2.438       .  S
Zr367       O372   2.430       .  S
O368        C373   1.282       .  A
O369        H386   0.990       .  S
O369        H401   0.990       .  S
O370        H387   0.990       .  S
O371        H391   0.990       .  S
O371        H400   0.990       .  S
O372        C373   1.283       .  A
C373       C1277   1.478       .  S
O374        H393   0.990       .  S
O374        H397   0.990       .  S
O375        H389   0.990       .  S
O375        H396   0.990       .  S
O376        C380   1.282       .  A
O377        C380   1.287       .  A
O378        H388   0.991       .  S
O379        H392   0.990       .  S
C380       C1287   1.483       .  S
Zr403       O404   2.439       .  S
Zr403       O405   2.426       .  S
Zr403       O406   2.418       .  S
Zr403       O409   2.414       .  S
Zr403       O411   2.375       .  S
Zr403       O412   2.381       .  S
Zr403       O413   2.399       .  S
Zr403       O414   2.399       .  S
O404        H460   0.990       .  S
O404        H468   0.990       .  S
O405        C425   1.283       .  A
O406        C427   1.283       .  A
O407       Zr417   2.460       .  S
O407        C426   1.289       .  A
O408       Zr416   2.445       .  S
O408        C427   1.286       .  A
O409        C426   1.283       .  A
O410       Zr418   2.426       .  S
O410        C425   1.282       .  A
O411       Zr416   2.398       .  S
O411       Zr418   2.375       .  S
O412       Zr417   2.395       .  S
O412       Zr418   2.373       .  S
O412        H447   0.967       .  S
O413       Zr416   2.402       .  S
O413       Zr433   2.392       .  S
O413        H450   0.967       .  S
O414       Zr417   2.401       .  S
O414       Zr433   2.393       .  S
Zr415       O440   2.438       .  S
Zr415       O434   2.425       .  S
Zr415       O442   2.405       .  S
Zr415       O430   2.408       .  S
Zr415       O421   2.403       .  S
Zr415       O422   2.397       .  S
Zr415       O423   2.371       .  S
Zr415       O424   2.375       .  S
Zr416       O435   2.436       .  S
Zr416       O428   2.435       .  S
Zr416       O429   2.458       .  S
Zr416       O422   2.397       .  S
Zr416       O423   2.387       .  S
Zr417       O419   2.435       .  S
Zr417       O441   2.437       .  S
Zr417       O443   2.467       .  S
Zr417       O421   2.397       .  S
Zr417       O424   2.387       .  S
Zr418       O444   2.435       .  S
Zr418       O445   2.435       .  S
Zr418       O420   2.436       .  S
Zr418       O421   2.404       .  S
Zr418       O422   2.398       .  S
O419        H456   0.990       .  S
O420        H451   0.990       .  S
O420        H465   0.990       .  S
O422        H448   0.967       .  S
O423       Zr433   2.376       .  S
O424       Zr433   2.368       .  S
O424        H449   0.966       .  S
C425       C1915   1.479       .  S
C426       C2003   1.479       .  S
C427       C2201   1.476       .  S
O428        H464   0.990       .  S
O429        C431   1.288       .  A
O430        C431   1.282       .  A
C431       C1199   1.476       .  S
O432       Zr433   2.436       .  S
O432        H461   0.990       .  S
Zr433       O436   2.435       .  S
Zr433       O437   2.437       .  S
Zr433       O438   2.421       .  S
O434        C439   1.284       .  A
O435        H452   0.990       .  S
O435        H467   0.990       .  S
O436        H453   0.990       .  S
O437        H457   0.990       .  S
O437        H466   0.990       .  S
O438        C439   1.282       .  A
C439       C1233   1.481       .  S
O440        H459   0.990       .  S
O440        H463   0.991       .  S
O441        H455   0.990       .  S
O441        H462   0.990       .  S
O442        C446   1.281       .  A
O443        C446   1.290       .  A
O444        H454   0.990       .  S
O445        H458   0.990       .  S
C446       C1177   1.479       .  S
Zr469       O470   2.440       .  S
Zr469       O471   2.449       .  S
Zr469       O472   2.418       .  S
Zr469       O475   2.425       .  S
Zr469       O477   2.375       .  S
Zr469       O478   2.375       .  S
Zr469       O479   2.405       .  S
Zr469       O480   2.405       .  S
O470        H526   0.990       .  S
O470        H534   0.991       .  S
O471        C491   1.288       .  A
O472        C493   1.283       .  A
O473       Zr483   2.451       .  S
O473        C492   1.288       .  A
O474       Zr482   2.459       .  S
O474        C493   1.288       .  A
O475        C492   1.286       .  A
O476       Zr484   2.419       .  S
O476        C491   1.281       .  A
O477       Zr482   2.392       .  S
O477       Zr484   2.379       .  S
O478       Zr483   2.393       .  S
O478       Zr484   2.373       .  S
O478        H513   0.966       .  S
O479       Zr482   2.400       .  S
O479       Zr499   2.400       .  S
O479        H516   0.965       .  S
O480       Zr483   2.392       .  S
O480       Zr499   2.408       .  S
Zr481       O506   2.438       .  S
Zr481       O500   2.417       .  S
Zr481       O508   2.424       .  S
Zr481       O496   2.424       .  S
Zr481       O487   2.394       .  S
Zr481       O488   2.398       .  S
Zr481       O489   2.373       .  S
Zr481       O490   2.378       .  S
Zr482       O501   2.437       .  S
Zr482       O494   2.434       .  S
Zr482       O495   2.442       .  S
Zr482       O488   2.403       .  S
Zr482       O489   2.395       .  S
Zr483       O485   2.435       .  S
Zr483       O507   2.437       .  S
Zr483       O509   2.439       .  S
Zr483       O487   2.397       .  S
Zr483       O490   2.397       .  S
Zr484       O510   2.435       .  S
Zr484       O511   2.435       .  S
Zr484       O486   2.439       .  S
Zr484       O487   2.393       .  S
Zr484       O488   2.392       .  S
O485        H522   0.990       .  S
O486        H517   0.990       .  S
O486        H531   0.990       .  S
O488        H514   0.965       .  S
O489       Zr499   2.370       .  S
O490       Zr499   2.376       .  S
O490        H515   0.967       .  S
C491       C2135   1.487       .  S
C492       C2047   1.488       .  S
C493       C2267   1.488       .  S
O494        H530   0.990       .  S
O495        C497   1.286       .  A
O496        C497   1.284       .  A
C497       C1133   1.472       .  S
O498       Zr499   2.438       .  S
O498        H527   0.990       .  S
Zr499       O502   2.437       .  S
Zr499       O503   2.440       .  S
Zr499       O504   2.445       .  S
O500        C505   1.283       .  A
O501        H518   0.990       .  S
O501        H533   0.990       .  S
O502        H519   0.990       .  S
O503        H523   0.990       .  S
O503        H532   0.989       .  S
O504        C505   1.286       .  A
C505       C1155   1.486       .  S
O506        H525   0.990       .  S
O506        H529   0.990       .  S
O507        H521   0.990       .  S
O507        H528   0.990       .  S
O508        C512   1.285       .  A
O509        C512   1.285       .  A
O510        H520   0.990       .  S
O511        H524   0.990       .  S
C512       C1111   1.478       .  S
Zr535       O536   2.440       .  S
Zr535       O537   2.428       .  S
Zr535       O538   2.416       .  S
Zr535       O541   2.421       .  S
Zr535       O543   2.376       .  S
Zr535       O544   2.373       .  S
Zr535       O545   2.405       .  S
Zr535       O546   2.397       .  S
O536        H592   0.991       .  S
O536        H600   0.990       .  S
O537        C557   1.285       .  A
O538        C559   1.281       .  A
O539       Zr549   2.445       .  S
O539        C558   1.286       .  A
O540       Zr548   2.449       .  S
O540        C559   1.287       .  A
O541        C558   1.284       .  A
O542       Zr550   2.418       .  S
O542        C557   1.281       .  A
O543       Zr548   2.394       .  S
O543       Zr550   2.378       .  S
O544       Zr549   2.388       .  S
O544       Zr550   2.377       .  S
O544        H579   0.966       .  S
O545       Zr548   2.401       .  S
O545       Zr565   2.397       .  S
O545        H582   0.966       .  S
O546       Zr549   2.399       .  S
O546       Zr565   2.403       .  S
Zr547       O572   2.441       .  S
Zr547       O566   2.427       .  S
Zr547       O574   2.415       .  S
Zr547       O562   2.420       .  S
Zr547       O553   2.395       .  S
Zr547       O554   2.403       .  S
Zr547       O555   2.375       .  S
Zr547       O556   2.376       .  S
Zr548       O567   2.435       .  S
Zr548       O560   2.435       .  S
Zr548       O561   2.439       .  S
Zr548       O554   2.407       .  S
Zr548       O555   2.399       .  S
Zr549       O551   2.434       .  S
Zr549       O573   2.438       .  S
Zr549       O575   2.444       .  S
Zr549       O553   2.394       .  S
Zr549       O556   2.393       .  S
Zr550       O576   2.434       .  S
Zr550       O577   2.436       .  S
Zr550       O552   2.436       .  S
Zr550       O553   2.392       .  S
Zr550       O554   2.392       .  S
O551        H588   0.990       .  S
O552        H583   0.990       .  S
O552        H597   0.990       .  S
O554        H580   0.966       .  S
O555       Zr565   2.373       .  S
O556       Zr565   2.375       .  S
O556        H581   0.966       .  S
C557       C1981   1.481       .  S
C558       C2113   1.483       .  S
C559       C2321   1.476       .  S
O560        H596   0.990       .  S
O561        C563   1.284       .  A
O562        C563   1.284       .  A
C563       C1067   1.486       .  S
O564       Zr565   2.436       .  S
O564        H593   0.990       .  S
Zr565       O568   2.436       .  S
Zr565       O569   2.437       .  S
Zr565       O570   2.431       .  S
O566        C571   1.283       .  A
O567        H584   0.991       .  S
O567        H599   0.990       .  S
O568        H585   0.990       .  S
O569        H589   0.990       .  S
O569        H598   0.990       .  S
O570        C571   1.283       .  A
C571       C1089   1.479       .  S
O572        H591   0.990       .  S
O572        H595   0.990       .  S
O573        H587   0.990       .  S
O573        H594   0.990       .  S
O574        C578   1.282       .  A
O575        C578   1.286       .  A
O576        H586   0.990       .  S
O577        H590   0.990       .  S
C578       C1045   1.470       .  S
C601        N602   1.355       .  A
C601        N606   1.359       .  A
C601       C1101   1.479       .  S
N602        C603   1.355       .  A
C603        N604   1.360       .  A
C603       C1023   1.483       .  S
N604        C605   1.364       .  A
C605        N606   1.362       .  A
C605       C1211   1.485       .  S
C607        N608   1.366       .  A
C607        N612   1.357       .  A
C607       C1265   1.479       .  S
N608        C609   1.365       .  A
C609        N610   1.357       .  A
C609       C1221   1.485       .  S
N610        C611   1.351       .  A
C611        N612   1.351       .  A
C611       C1001   1.477       .  S
C613        N614   1.360       .  A
C613        N618   1.362       .  A
C613       C1145   1.476       .  S
N614        C615   1.355       .  A
C615        N616   1.355       .  A
C615        C979   1.477       .  S
N616        C617   1.361       .  A
C617        N618   1.362       .  A
C617       C1299   1.486       .  S
C619        N620   1.367       .  A
C619        N624   1.357       .  A
C619       C1167   1.477       .  S
N620        C621   1.366       .  A
C621        N622   1.360       .  A
C621       C1079   1.487       .  S
N622        C623   1.348       .  A
C623        N624   1.348       .  A
C623        C957   1.475       .  S
C625        N626   1.361       .  A
C625        N630   1.373       .  A
C625       C1475   1.495       .  S
N626        C627   1.352       .  A
C627        N628   1.353       .  A
C627        C935   1.484       .  S
N628        C629   1.361       .  A
C629        N630   1.373       .  A
C629       C1629   1.498       .  S
C631        N632   1.369       .  A
C631        N636   1.357       .  A
C631       C1441   1.492       .  S
N632        C633   1.371       .  A
C633        N634   1.360       .  A
C633       C1409   1.485       .  S
N634        C635   1.352       .  A
C635        N636   1.348       .  A
C635        C925   1.476       .  S
C637        N638   1.365       .  A
C637        N642   1.361       .  A
C637       C1375   1.482       .  S
N638        C639   1.366       .  A
C639        N640   1.359       .  A
C639       C1529   1.486       .  S
N640        C641   1.352       .  A
C641        N642   1.352       .  A
C641        C891   1.483       .  S
C643        N644   1.363       .  A
C643        N648   1.356       .  A
C643       C1651   1.479       .  S
N644        C645   1.366       .  A
C645        N646   1.364       .  A
C645       C1507   1.477       .  S
N646        C647   1.355       .  A
C647        N648   1.352       .  A
C647        C869   1.479       .  S
C649        N650   1.354       .  A
C649        N654   1.366       .  A
C649       C1353   1.488       .  S
N650        C651   1.349       .  A
C651        N652   1.352       .  A
C651        C847   1.476       .  S
N652        C653   1.362       .  A
C653        N654   1.369       .  A
C653       C1057   1.481       .  S
C655        N656   1.359       .  A
C655        N660   1.364       .  A
C655       C1419   1.482       .  S
N656        C657   1.350       .  A
C657        N658   1.352       .  A
C657        C825   1.473       .  S
N658        C659   1.359       .  A
C659        N660   1.365       .  A
C659       C1123   1.481       .  S
C661        N662   1.357       .  A
C661        N666   1.368       .  A
C661       C1497   1.485       .  S
N662        C663   1.352       .  A
C663        N664   1.350       .  A
C663        C803   1.472       .  S
N664        C665   1.356       .  A
C665        N666   1.368       .  A
C665       C1189   1.487       .  S
C667        N668   1.360       .  A
C667        N672   1.366       .  A
C667       C1607   1.483       .  S
N668        C669   1.354       .  A
C669        N670   1.356       .  A
C669        C781   1.480       .  S
N670        C671   1.361       .  A
C671        N672   1.367       .  A
C671       C1243   1.492       .  S
O673       Zr709   2.431   1_565  S
O673        C684   1.291   1_554  A
O674       Zr708   2.431   1_565  S
O674        C685   1.290       .  A
O675       Zr681   2.433   1_556  S
O675        C686   1.290       .  A
O676       Zr681   2.423       .  S
O676        C687   1.289       .  A
O677       Zr711   2.457   1_565  S
O677        C687   1.296       .  A
O678       Zr710   2.437       .  S
O678        C686   1.291   1_545  A
O679       Zr681   2.435   1_455  S
O679        C685   1.292       .  A
O680       Zr681   2.435   1_556  S
O680        C684   1.292       .  A
Zr681       O682   2.339   1_665  S
Zr681       O683   2.331   1_564  S
Zr681       O691   2.341   1_565  S
Zr681       O689   2.336   1_664  S
O682       Zr708   2.334       .  S
O682       Zr711   2.337   1_455  S
O683       Zr709   2.332   1_556  S
O683       Zr710   2.332       .  S
C684       C2355   1.470       .  S
C685       C2211   1.468       .  S
C686       C2013   1.462       .  S
C687       C1893   1.470       .  S
H688        O689   0.966       .  S
O689       Zr708   2.336   1_556  S
O689       Zr710   2.335   1_455  S
H690        O691   0.966   1_565  S
O691       Zr709   2.334       .  S
O691       Zr711   2.341       .  S
O692       Zr708   2.432       .  S
O692        C715   1.292       .  A
O693       Zr709   2.418       .  S
O693        C716   1.289       .  A
O694       Zr710   2.437   1_455  S
O694        C717   1.292       .  A
O695       Zr711   2.437   1_455  S
O695        C718   1.291       .  A
O696       Zr711   2.446       .  S
O696        C719   1.294       .  A
O697       Zr710   2.432       .  S
O697        C720   1.291       .  A
O698       Zr712   2.466   1_556  S
O698        C721   1.297       .  A
O699       Zr712   2.460       .  S
O699        C722   1.296       .  A
O700       Zr710   2.422       .  S
O700        C721   1.290       .  A
O701       Zr711   2.435       .  S
O701        C722   1.292       .  A
O702       Zr708   2.422   1_556  S
O702        C717   1.290       .  A
O703       Zr709   2.430   1_556  S
O703        C720   1.290       .  A
O704       Zr709   2.430       .  S
O704        C719   1.291       .  A
O705       Zr708   2.435       .  S
O705        C718   1.291       .  A
O706       Zr712   2.456   1_455  S
O706        C715   1.295       .  A
O707       Zr712   2.449       .  S
O707        C716   1.294       .  A
Zr708       O714   2.337   1_554  S
Zr708       O726   2.338       .  S
Zr709       O713   2.342       .  S
Zr709       O724   2.337   1_554  S
Zr710       O714   2.340   1_655  S
Zr710       O724   2.340       .  S
Zr711       O713   2.345       .  S
Zr711       O726   2.349   1_655  S
Zr712       O713   2.350       .  S
Zr712       O714   2.345   1_654  S
Zr712       O726   2.351   1_655  S
Zr712       O724   2.349   1_554  S
C715       C1321   1.481       .  S
C716       C2277   1.467       .  S
C717       C1959   1.474       .  S
C718       C1551   1.465       .  S
C719       C1827   1.482       .  S
C720       C2157   1.469       .  S
C721       C2091   1.476       .  S
C722       C1717   1.476       .  S
H723        O724   0.966       .  S
H725        O726   0.966       .  S
O727       Zr763   2.444       .  S
O727        C738   1.293       .  A
O728       Zr762   2.458       .  S
O728        C739   1.296       .  A
O729       Zr735   2.424       .  S
O729        C740   1.289       .  A
O730       Zr735   2.426       .  S
O730        C741   1.290       .  A
O731       Zr765   2.443       .  S
O731        C741   1.292       .  A
O732       Zr764   2.432       .  S
O732        C740   1.290       .  A
O733       Zr735   2.422       .  S
O733        C739   1.290       .  A
O734       Zr735   2.429       .  S
O734        C738   1.290       .  A
Zr735       O736   2.331       .  S
Zr735       O737   2.328       .  S
Zr735       O745   2.334       .  S
Zr735       O743   2.336       .  S
O736       Zr762   2.345       .  S
O736       Zr765   2.339       .  S
O737       Zr763   2.328       .  S
O737       Zr764   2.329       .  S
C738       C1035   1.469       .  S
C739        C991   1.477       .  S
C740       C1013   1.459       .  S
C741        C969   1.468       .  S
H742        O743   0.966       .  S
O743       Zr762   2.342       .  S
O743       Zr764   2.337       .  S
H744        O745   0.966       .  S
O745       Zr763   2.336       .  S
O745       Zr765   2.330       .  S
O746       Zr762   2.445       .  S
O746        C769   1.294       .  A
O747       Zr763   2.436       .  S
O747        C770   1.292       .  A
O748       Zr764   2.415       .  S
O748        C771   1.289       .  A
O749       Zr765   2.432       .  S
O749        C772   1.292       .  A
O750       Zr765   2.447       .  S
O750        C773   1.294       .  A
O751       Zr764   2.422       .  S
O751        C774   1.288       .  A
O752       Zr766   2.456       .  S
O752        C775   1.295       .  A
O753       Zr766   2.431       .  S
O753        C776   1.290       .  A
O754       Zr764   2.432       .  S
O754        C775   1.292       .  A
O755       Zr765   2.432       .  S
O755        C776   1.292       .  A
O756       Zr762   2.465       .  S
O756        C771   1.297       .  A
O757       Zr763   2.417       .  S
O757        C774   1.288       .  A
O758       Zr763   2.418       .  S
O758        C773   1.288       .  A
O759       Zr762   2.447       .  S
O759        C772   1.294       .  A
O760       Zr766   2.448       .  S
O760        C769   1.294       .  A
O761       Zr766   2.453       .  S
O761        C770   1.294       .  A
Zr762       O768   2.349       .  S
Zr762       O780   2.352       .  S
Zr763       O767   2.338       .  S
Zr763       O778   2.341       .  S
Zr764       O768   2.341       .  S
Zr764       O778   2.337       .  S
Zr765       O767   2.338       .  S
Zr765       O780   2.346       .  S
Zr766       O767   2.348       .  S
Zr766       O768   2.352       .  S
Zr766       O780   2.346       .  S
Zr766       O778   2.341       .  S
C769        C947   1.477       .  S
C770        C903   1.479       .  S
C771        C793   1.480       .  S
C772        C837   1.474       .  S
C773        C859   1.468       .  S
C774        C815   1.453       .  S
C775        C881   1.477       .  S
C776        C913   1.467       .  S
H777        O778   0.966       .  S
H779        O780   0.966       .  S
C781        C782   1.401       .  A
C781        C786   1.399       .  A
C782        C783   1.400       .  A
C782        H795   1.083       .  S
C783        C784   1.415       .  A
C783        H796   1.078       .  S
C784        C790   1.432       .  A
C784        C785   1.424       .  A
C785        C787   1.399       .  A
C785        C786   1.405       .  A
C786        H797   1.085       .  S
C787        C788   1.388       .  A
C787        H798   1.084       .  S
C788        C789   1.399       .  A
C788        H799   1.084       .  S
C789        C790   1.421       .  A
C789        C794   1.401       .  A
C790        C791   1.418       .  A
C791        C792   1.402       .  A
C791        H800   1.078       .  S
C792        C793   1.399       .  A
C792        H801   1.083       .  S
C793        C794   1.403       .  A
C794        H802   1.085       .  S
C803        C804   1.400       .  A
C803        C808   1.399       .  A
C804        C805   1.392       .  A
C804        H817   1.083       .  S
C805        C806   1.413       .  A
C805        H818   1.077       .  S
C806        C812   1.423       .  A
C806        C807   1.422       .  A
C807        C809   1.398       .  A
C807        C808   1.399       .  A
C808        H819   1.085       .  S
C809        C810   1.386       .  A
C809        H820   1.084       .  S
C810        C811   1.397       .  A
C810        H821   1.084       .  S
C811        C812   1.423       .  A
C811        C816   1.396       .  A
C812        C813   1.416       .  A
C813        C814   1.392       .  A
C813        H822   1.077       .  S
C814        C815   1.395       .  A
C814        H823   1.084       .  S
C815        C816   1.394       .  A
C816        H824   1.085       .  S
C825        C826   1.399       .  A
C825        C830   1.399       .  A
C826        C827   1.396       .  A
C826        H839   1.084       .  S
C827        C828   1.415       .  A
C827        H840   1.078       .  S
C828        C834   1.428       .  A
C828        C829   1.422       .  A
C829        C831   1.399       .  A
C829        C830   1.403       .  A
C830        H841   1.085       .  S
C831        C832   1.390       .  A
C831        H842   1.084       .  S
C832        C833   1.399       .  A
C832        H843   1.084       .  S
C833        C834   1.422       .  A
C833        C838   1.403       .  A
C834        C835   1.415       .  A
C835        C836   1.397       .  A
C835        H844   1.078       .  S
C836        C837   1.399       .  A
C836        H845   1.084       .  S
C837        C838   1.400       .  A
C838        H846   1.085       .  S
C847        C848   1.400       .  A
C847        C852   1.400       .  A
C848        C849   1.399       .  A
C848        H861   1.083       .  S
C849        C850   1.417       .  A
C849        H862   1.078       .  S
C850        C856   1.428       .  A
C850        C851   1.421       .  A
C851        C853   1.398       .  A
C851        C852   1.398       .  A
C852        H863   1.085       .  S
C853        C854   1.385       .  A
C853        H864   1.084       .  S
C854        C855   1.397       .  A
C854        H865   1.084       .  S
C855        C856   1.424       .  A
C855        C860   1.399       .  A
C856        C857   1.415       .  A
C857        C858   1.397       .  A
C857        H866   1.078       .  S
C858        C859   1.400       .  A
C858        H867   1.084       .  S
C859        C860   1.395       .  A
C860        H868   1.085       .  S
C869        C870   1.399       .  A
C869        C874   1.404       .  A
C870        C871   1.391       .  A
C870        H883   1.084       .  S
C871        C872   1.412       .  A
C871        H884   1.077       .  S
C872        C878   1.429       .  A
C872        C873   1.423       .  A
C873        C875   1.402       .  A
C873        C874   1.413       .  A
C874        H885   1.084       .  S
C875        C876   1.396       .  A
C875        H886   1.084       .  S
C876        C877   1.402       .  A
C876        H887   1.084       .  S
C877        C878   1.422       .  A
C877        C882   1.412       .  A
C878        C879   1.414       .  A
C879        C880   1.392       .  A
C879        H888   1.077       .  S
C880        C881   1.398       .  A
C880        H889   1.084       .  S
C881        C882   1.404       .  A
C882        H890   1.084       .  S
C891        C892   1.401       .  A
C891        C896   1.404       .  A
C892        C893   1.396       .  A
C892        H905   1.083       .  S
C893        C894   1.415       .  A
C893        H906   1.077       .  S
C894        C900   1.430       .  A
C894        C895   1.421       .  A
C895        C897   1.401       .  A
C895        C896   1.407       .  A
C896        H907   1.084       .  S
C897        C898   1.392       .  A
C897        H908   1.084       .  S
C898        C899   1.400       .  A
C898        H909   1.084       .  S
C899        C900   1.424       .  A
C899        C904   1.410       .  A
C900        C901   1.414       .  A
C901        C902   1.394       .  A
C901        H910   1.077       .  S
C902        C903   1.400       .  A
C902        H911   1.084       .  S
C903        C904   1.402       .  A
C904        H912   1.085       .  S
C913        C914   1.397       .  A
C913        C918   1.400       .  A
C914        C915   1.391       .  A
C914        H927   1.084       .  S
C915        C916   1.414       .  A
C915        H928   1.077       .  S
C916        C922   1.424       .  A
C916        C917   1.423       .  A
C917        C919   1.400       .  A
C917        C918   1.404       .  A
C918        H929   1.085       .  S
C919        C920   1.391       .  A
C919        H930   1.084       .  S
C920        C921   1.401       .  A
C920        H931   1.084       .  S
C921        C922   1.420       .  A
C921        C926   1.403       .  A
C922        C923   1.414       .  A
C923        C924   1.393       .  A
C923        H932   1.077       .  S
C924        C925   1.398       .  A
C924        H933   1.083       .  S
C925        C926   1.404       .  A
C926        H934   1.085       .  S
C935        C936   1.400       .  A
C935        C940   1.404       .  A
C936        C937   1.397       .  A
C936        H949   1.083       .  S
C937        C938   1.415       .  A
C937        H950   1.077       .  S
C938        C944   1.431       .  A
C938        C939   1.422       .  A
C939        C941   1.401       .  A
C939        C940   1.409       .  A
C940        H951   1.084       .  S
C941        C942   1.393       .  A
C941        H952   1.084       .  S
C942        C943   1.401       .  A
C942        H953   1.084       .  S
C943        C944   1.423       .  A
C943        C948   1.409       .  A
C944        C945   1.415       .  A
C945        C946   1.397       .  A
C945        H954   1.077       .  S
C946        C947   1.398       .  A
C946        H955   1.084       .  S
C947        C948   1.403       .  A
C948        H956   1.085       .  S
C957        C958   1.400       .  A
C957        C962   1.400       .  A
C958        C959   1.395       .  A
C958        H971   1.083       .  S
C959        C960   1.415       .  A
C959        H972   1.077       .  S
C960        C966   1.428       .  A
C960        C961   1.422       .  A
C961        C963   1.399       .  A
C961        C962   1.401       .  A
C962        H973   1.085       .  S
C963        C964   1.388       .  A
C963        H974   1.084       .  S
C964        C965   1.399       .  A
C964        H975   1.083       .  S
C965        C966   1.423       .  A
C965        C970   1.402       .  A
C966        C967   1.416       .  A
C967        C968   1.395       .  A
C967        H976   1.077       .  S
C968        C969   1.397       .  A
C968        H977   1.084       .  S
C969        C970   1.398       .  A
C970        H978   1.085       .  S
C979        C980   1.400       .  A
C979        C984   1.400       .  A
C980        C981   1.398       .  A
C980        H993   1.083       .  S
C981        C982   1.415       .  A
C981        H994   1.077       .  S
C982        C988   1.431       .  A
C982        C983   1.424       .  A
C983        C985   1.399       .  A
C983        C984   1.406       .  A
C984        H995   1.085       .  S
C985        C986   1.389       .  A
C985        H996   1.084       .  S
C986        C987   1.399       .  A
C986        H997   1.083       .  S
C987        C988   1.421       .  A
C987        C992   1.402       .  A
C988        C989   1.418       .  A
C989        C990   1.400       .  A
C989        H998   1.077       .  S
C990        C991   1.399       .  A
C990        H999   1.083       .  S
C991        C992   1.402       .  A
C992       H1000   1.085       .  S
C1001      C1002   1.400       .  A
C1001      C1006   1.402       .  A
C1002      C1003   1.393       .  A
C1002      H1015   1.083       .  S
C1003      C1004   1.414       .  A
C1003      H1016   1.077       .  S
C1004      C1010   1.426       .  A
C1004      C1005   1.422       .  A
C1005      C1007   1.399       .  A
C1005      C1006   1.402       .  A
C1006      H1017   1.084       .  S
C1007      C1008   1.389       .  A
C1007      H1018   1.084       .  S
C1008      C1009   1.398       .  A
C1008      H1019   1.084       .  S
C1009      C1010   1.424       .  A
C1009      C1014   1.403       .  A
C1010      C1011   1.414       .  A
C1011      C1012   1.391       .  A
C1011      H1020   1.077       .  S
C1012      C1013   1.395       .  A
C1012      H1021   1.082       .  S
C1013      C1014   1.395       .  A
C1014      H1022   1.085       .  S
C1023      C1024   1.401       .  A
C1023      C1028   1.403       .  A
C1024      C1025   1.400       .  A
C1024      H1037   1.083       .  S
C1025      C1026   1.417       .  A
C1025      H1038   1.078       .  S
C1026      C1032   1.429       .  A
C1026      C1027   1.420       .  A
C1027      C1029   1.400       .  A
C1027      C1028   1.401       .  A
C1028      H1039   1.084       .  S
C1029      C1030   1.388       .  A
C1029      H1040   1.084       .  S
C1030      C1031   1.398       .  A
C1030      H1041   1.084       .  S
C1031      C1032   1.424       .  A
C1031      C1036   1.403       .  A
C1032      C1033   1.414       .  A
C1033      C1034   1.397       .  A
C1033      H1042   1.078       .  S
C1034      C1035   1.399       .  A
C1034      H1043   1.082       .  S
C1035      C1036   1.397       .  A
C1036      H1044   1.085       .  S
C1045      C1046   1.397       .  A
C1045      C1050   1.400       .  A
C1046      C1047   1.393       .  A
C1046      H1059   1.084       .  S
C1047      C1048   1.415       .  A
C1047      H1060   1.077       .  S
C1048      C1054   1.429       .  A
C1048      C1049   1.423       .  A
C1049      C1051   1.401       .  A
C1049      C1050   1.409       .  A
C1050      H1061   1.085       .  S
C1051      C1052   1.393       .  A
C1051      H1062   1.084       .  S
C1052      C1053   1.400       .  A
C1052      H1063   1.084       .  S
C1053      C1054   1.423       .  A
C1053      C1058   1.411       .  A
C1054      C1055   1.413       .  A
C1055      C1056   1.392       .  A
C1055      H1064   1.077       .  S
C1056      C1057   1.401       .  A
C1056      H1065   1.084       .  S
C1057      C1058   1.402       .  A
C1058      H1066   1.084       .  S
C1067      C1068   1.405       .  A
C1067      C1072   1.399       .  A
C1068      C1069   1.408       .  A
C1068      H1081   1.083       .  S
C1069      C1070   1.418       .  A
C1069      H1082   1.079       .  S
C1070      C1076   1.434       .  A
C1070      C1071   1.422       .  A
C1071      C1073   1.395       .  A
C1071      C1072   1.391       .  A
C1072      H1083   1.084       .  S
C1073      C1074   1.378       .  A
C1073      H1084   1.084       .  S
C1074      C1075   1.395       .  A
C1074      H1085   1.084       .  S
C1075      C1076   1.421       .  A
C1075      C1080   1.390       .  A
C1076      C1077   1.420       .  A
C1077      C1078   1.410       .  A
C1077      H1086   1.079       .  S
C1078      C1079   1.405       .  A
C1078      H1087   1.083       .  S
C1079      C1080   1.399       .  A
C1080      H1088   1.084       .  S
C1089      C1090   1.400       .  A
C1089      C1094   1.401       .  A
C1090      C1091   1.397       .  A
C1090      H1103   1.084       .  S
C1091      C1092   1.416       .  A
C1091      H1104   1.077       .  S
C1092      C1098   1.430       .  A
C1092      C1093   1.422       .  A
C1093      C1095   1.399       .  A
C1093      C1094   1.405       .  A
C1094      H1105   1.085       .  S
C1095      C1096   1.390       .  A
C1095      H1106   1.084       .  S
C1096      C1097   1.399       .  A
C1096      H1107   1.084       .  S
C1097      C1098   1.424       .  A
C1097      C1102   1.406       .  A
C1098      C1099   1.414       .  A
C1099      C1100   1.394       .  A
C1099      H1108   1.077       .  S
C1100      C1101   1.401       .  A
C1100      H1109   1.084       .  S
C1101      C1102   1.400       .  A
C1102      H1110   1.084       .  S
C1111      C1112   1.402       .  A
C1111      C1116   1.399       .  A
C1112      C1113   1.401       .  A
C1112      H1125   1.083       .  S
C1113      C1114   1.416       .  A
C1113      H1126   1.078       .  S
C1114      C1120   1.431       .  A
C1114      C1115   1.423       .  A
C1115      C1117   1.397       .  A
C1115      C1116   1.400       .  A
C1116      H1127   1.085       .  S
C1117      C1118   1.385       .  A
C1117      H1128   1.084       .  S
C1118      C1119   1.398       .  A
C1118      H1129   1.084       .  S
C1119      C1120   1.421       .  A
C1119      C1124   1.398       .  A
C1120      C1121   1.418       .  A
C1121      C1122   1.403       .  A
C1121      H1130   1.078       .  S
C1122      C1123   1.401       .  A
C1122      H1131   1.083       .  S
C1123      C1124   1.401       .  A
C1124      H1132   1.085       .  S
C1133      C1134   1.397       .  A
C1133      C1138   1.401       .  A
C1134      C1135   1.393       .  A
C1134      H1147   1.084       .  S
C1135      C1136   1.415       .  A
C1135      H1148   1.077       .  S
C1136      C1142   1.429       .  A
C1136      C1137   1.423       .  A
C1137      C1139   1.401       .  A
C1137      C1138   1.409       .  A
C1138      H1149   1.085       .  S
C1139      C1140   1.393       .  A
C1139      H1150   1.084       .  S
C1140      C1141   1.400       .  A
C1140      H1151   1.084       .  S
C1141      C1142   1.423       .  A
C1141      C1146   1.409       .  A
C1142      C1143   1.414       .  A
C1143      C1144   1.393       .  A
C1143      H1152   1.077       .  S
C1144      C1145   1.398       .  A
C1144      H1153   1.084       .  S
C1145      C1146   1.402       .  A
C1146      H1154   1.084       .  S
C1155      C1156   1.403       .  A
C1155      C1160   1.406       .  A
C1156      C1157   1.391       .  A
C1156      H1169   1.083       .  S
C1157      C1158   1.412       .  A
C1157      H1170   1.078       .  S
C1158      C1164   1.425       .  A
C1158      C1159   1.421       .  A
C1159      C1161   1.402       .  A
C1159      C1160   1.410       .  A
C1160      H1171   1.084       .  S
C1161      C1162   1.395       .  A
C1161      H1172   1.084       .  S
C1162      C1163   1.400       .  A
C1162      H1173   1.084       .  S
C1163      C1164   1.422       .  A
C1163      C1168   1.410       .  A
C1164      C1165   1.410       .  A
C1165      C1166   1.388       .  A
C1165      H1174   1.078       .  S
C1166      C1167   1.402       .  A
C1166      H1175   1.084       .  S
C1167      C1168   1.402       .  A
C1168      H1176   1.084       .  S
C1177      C1178   1.401       .  A
C1177      C1182   1.401       .  A
C1178      C1179   1.394       .  A
C1178      H1191   1.084       .  S
C1179      C1180   1.415       .  A
C1179      H1192   1.077       .  S
C1180      C1186   1.431       .  A
C1180      C1181   1.423       .  A
C1181      C1183   1.400       .  A
C1181      C1182   1.410       .  A
C1182      H1193   1.084       .  S
C1183      C1184   1.393       .  A
C1183      H1194   1.084       .  S
C1184      C1185   1.400       .  A
C1184      H1195   1.084       .  S
C1185      C1186   1.424       .  A
C1185      C1190   1.412       .  A
C1186      C1187   1.411       .  A
C1187      C1188   1.392       .  A
C1187      H1196   1.077       .  S
C1188      C1189   1.405       .  A
C1188      H1197   1.083       .  S
C1189      C1190   1.403       .  A
C1190      H1198   1.084       .  S
C1199      C1200   1.399       .  A
C1199      C1204   1.400       .  A
C1200      C1201   1.403       .  A
C1200      H1213   1.083       .  S
C1201      C1202   1.419       .  A
C1201      H1214   1.078       .  S
C1202      C1208   1.433       .  A
C1202      C1203   1.422       .  A
C1203      C1205   1.399       .  A
C1203      C1204   1.401       .  A
C1204      H1215   1.085       .  S
C1205      C1206   1.388       .  A
C1205      H1216   1.084       .  S
C1206      C1207   1.398       .  A
C1206      H1217   1.084       .  S
C1207      C1208   1.424       .  A
C1207      C1212   1.405       .  A
C1208      C1209   1.415       .  A
C1209      C1210   1.400       .  A
C1209      H1218   1.078       .  S
C1210      C1211   1.403       .  A
C1210      H1219   1.083       .  S
C1211      C1212   1.401       .  A
C1212      H1220   1.084       .  S
C1221      C1222   1.401       .  A
C1221      C1226   1.404       .  A
C1222      C1223   1.402       .  A
C1222      H1235   1.083       .  S
C1223      C1224   1.419       .  A
C1223      H1236   1.078       .  S
C1224      C1230   1.431       .  A
C1224      C1225   1.419       .  A
C1225      C1227   1.399       .  A
C1225      C1226   1.398       .  A
C1226      H1237   1.084       .  S
C1227      C1228   1.386       .  A
C1227      H1238   1.084       .  S
C1228      C1229   1.397       .  A
C1228      H1239   1.084       .  S
C1229      C1230   1.424       .  A
C1229      C1234   1.402       .  A
C1230      C1231   1.413       .  A
C1231      C1232   1.397       .  A
C1231      H1240   1.077       .  S
C1232      C1233   1.403       .  A
C1232      H1241   1.083       .  S
C1233      C1234   1.400       .  A
C1234      H1242   1.085       .  S
C1243      C1244   1.403       .  A
C1243      C1248   1.404       .  A
C1244      C1245   1.406       .  A
C1244      H1257   1.083       .  S
C1245      C1246   1.418       .  A
C1245      H1258   1.078       .  S
C1246      C1252   1.438       .  A
C1246      C1247   1.422       .  A
C1247      C1249   1.399       .  A
C1247      C1248   1.404       .  A
C1248      H1259   1.084       .  S
C1249      C1250   1.388       .  A
C1249      H1260   1.084       .  S
C1250      C1251   1.399       .  A
C1250      H1261   1.084       .  S
C1251      C1252   1.424       .  A
C1251      C1256   1.406       .  A
C1252      C1253   1.417       .  A
C1253      C1254   1.405       .  A
C1253      H1262   1.078       .  S
C1254      C1255   1.402       .  A
C1254      H1263   1.083       .  S
C1255      C1256   1.402       .  A
C1256      H1264   1.085       .  S
C1265      C1266   1.399       .  A
C1265      C1270   1.403       .  A
C1266      C1267   1.400       .  A
C1266      H1279   1.083       .  S
C1267      C1268   1.418       .  A
C1267      H1280   1.077       .  S
C1268      C1274   1.430       .  A
C1268      C1269   1.421       .  A
C1269      C1271   1.399       .  A
C1269      C1270   1.400       .  A
C1270      H1281   1.085       .  S
C1271      C1272   1.387       .  A
C1271      H1282   1.084       .  S
C1272      C1273   1.398       .  A
C1272      H1283   1.084       .  S
C1273      C1274   1.423       .  A
C1273      C1278   1.402       .  A
C1274      C1275   1.415       .  A
C1275      C1276   1.398       .  A
C1275      H1284   1.077       .  S
C1276      C1277   1.400       .  A
C1276      H1285   1.083       .  S
C1277      C1278   1.401       .  A
C1278      H1286   1.085       .  S
C1287      C1288   1.403       .  A
C1287      C1292   1.399       .  A
C1288      C1289   1.408       .  A
C1288      H1301   1.083       .  S
C1289      C1290   1.420       .  A
C1289      H1302   1.078       .  S
C1290      C1296   1.434       .  A
C1290      C1291   1.421       .  A
C1291      C1293   1.397       .  A
C1291      C1292   1.394       .  A
C1292      H1303   1.085       .  S
C1293      C1294   1.382       .  A
C1293      H1304   1.084       .  S
C1294      C1295   1.396       .  A
C1294      H1305   1.084       .  S
C1295      C1296   1.423       .  A
C1295      C1300   1.397       .  A
C1296      C1297   1.417       .  A
C1297      C1298   1.405       .  A
C1297      H1306   1.078       .  S
C1298      C1299   1.404       .  A
C1298      H1307   1.083       .  S
C1299      C1300   1.400       .  A
C1300      H1308   1.084       .  S
C1309      C1310   1.400       .  A
C1309      C1314   1.399   1_554  A
C1310      C1311   1.398       .  A
C1310      H1323   1.083       .  S
C1311      C1312   1.415       .  A
C1311      H1324   1.077       .  S
C1312      C1318   1.433       .  A
C1312      C1313   1.425   1_554  A
C1313      C1315   1.398       .  A
C1313      C1314   1.406       .  A
C1314      H1325   1.085       .  S
C1315      C1316   1.389       .  A
C1315      H1326   1.084       .  S
C1316      C1317   1.399       .  A
C1316      H1327   1.084       .  S
C1317      C1318   1.421   1_556  A
C1317      C1322   1.402       .  A
C1318      C1319   1.419       .  A
C1319      C1320   1.403       .  A
C1319      H1328   1.078       .  S
C1320      C1321   1.400       .  A
C1320      H1329   1.083       .  S
C1321      C1322   1.401   1_554  A
C1322      H1330   1.085       .  S
C1331      C1332   1.403       .  A
C1331      C1336   1.406       .  A
C1332      C1333   1.389       .  A
C1332      H1345   1.083       .  S
C1333      C1334   1.410       .  A
C1333      H1346   1.077       .  S
C1334      C1340   1.429       .  A
C1334      C1335   1.423       .  A
C1335      C1337   1.402       .  A
C1335      C1336   1.416       .  A
C1336      H1347   1.084       .  S
C1337      C1338   1.397       .  A
C1337      H1348   1.084       .  S
C1338      C1339   1.402       .  A
C1338      H1349   1.084       .  S
C1339      C1340   1.422       .  A
C1339      C1344   1.414       .  A
C1340      C1341   1.413       .  A
C1341      C1342   1.392       .  A
C1341      H1350   1.077       .  S
C1342      C1343   1.400       .  A
C1342      H1351   1.084       .  S
C1343      C1344   1.406       .  A
C1344      H1352   1.084       .  S
C1353      C1354   1.405       .  A
C1353      C1358   1.405       .  A
C1354      C1355   1.388       .  A
C1354      H1367   1.083       .  S
C1355      C1356   1.408       .  A
C1355      H1368   1.078       .  S
C1356      C1362   1.427       .  A
C1356      C1357   1.423       .  A
C1357      C1359   1.401       .  A
C1357      C1358   1.414       .  A
C1358      H1369   1.084       .  S
C1359      C1360   1.396       .  A
C1359      H1370   1.084       .  S
C1360      C1361   1.403       .  A
C1360      H1371   1.084       .  S
C1361      C1362   1.419       .  A
C1361      C1366   1.410       .  A
C1362      C1363   1.414       .  A
C1363      C1364   1.393       .  A
C1363      H1372   1.077       .  S
C1364      C1365   1.401       .  A
C1364      H1373   1.083       .  S
C1365      C1366   1.407       .  A
C1366      H1374   1.084       .  S
C1375      C1376   1.400       .  A
C1375      C1380   1.407       .  A
C1376      C1377   1.387       .  A
C1376      H1389   1.084       .  S
C1377      C1378   1.410       .  A
C1377      H1390   1.078       .  S
C1378      C1384   1.425       .  A
C1378      C1379   1.420       .  A
C1379      C1381   1.403       .  A
C1379      C1380   1.415       .  A
C1380      H1391   1.084       .  S
C1381      C1382   1.399       .  A
C1381      H1392   1.084       .  S
C1382      C1383   1.404       .  A
C1382      H1393   1.084       .  S
C1383      C1384   1.421       .  A
C1383      C1388   1.416       .  A
C1384      C1385   1.409       .  A
C1385      C1386   1.387       .  A
C1385      H1394   1.078       .  S
C1386      C1387   1.403       .  A
C1386      H1395   1.083       .  S
C1387      C1388   1.409       .  A
C1388      H1396   1.084       .  S
C1397      C1398   1.400       .  A
C1397      C1402   1.401       .  A
C1398      C1399   1.402       .  A
C1398      H1411   1.083       .  S
C1399      C1400   1.416       .  A
C1399      H1412   1.078       .  S
C1400      C1406   1.435       .  A
C1400      C1401   1.424       .  A
C1401      C1403   1.399       .  A
C1401      C1402   1.406       .  A
C1402      H1413   1.085       .  S
C1403      C1404   1.389       .  A
C1403      H1414   1.084       .  S
C1404      C1405   1.400       .  A
C1404      H1415   1.084       .  S
C1405      C1406   1.421       .  A
C1405      C1410   1.403       .  A
C1406      C1407   1.419       .  A
C1407      C1408   1.405       .  A
C1407      H1416   1.078       .  S
C1408      C1409   1.400       .  A
C1408      H1417   1.083       .  S
C1409      C1410   1.403       .  A
C1410      H1418   1.085       .  S
C1419      C1420   1.402       .  A
C1419      C1424   1.400       .  A
C1420      C1421   1.406       .  A
C1420      H1433   1.083       .  S
C1421      C1422   1.419       .  A
C1421      H1434   1.078       .  S
C1422      C1428   1.434       .  A
C1422      C1423   1.421       .  A
C1423      C1425   1.397       .  A
C1423      C1424   1.395       .  A
C1424      H1435   1.085       .  S
C1425      C1426   1.383       .  A
C1425      H1436   1.084       .  S
C1426      C1427   1.397       .  A
C1426      H1437   1.084       .  S
C1427      C1428   1.423       .  A
C1427      C1432   1.398       .  A
C1428      C1429   1.417       .  A
C1429      C1430   1.405       .  A
C1429      H1438   1.078       .  S
C1430      C1431   1.403       .  A
C1430      H1439   1.083       .  S
C1431      C1432   1.399       .  A
C1432      H1440   1.085       .  S
C1441      C1442   1.405       .  A
C1441      C1446   1.406       .  A
C1442      C1443   1.387       .  A
C1442      H1455   1.083       .  S
C1443      C1444   1.409       .  A
C1443      H1456   1.076       .  S
C1444      C1450   1.430       .  A
C1444      C1445   1.424       .  A
C1445      C1447   1.402       .  A
C1445      C1446   1.417       .  A
C1446      H1457   1.084       .  S
C1447      C1448   1.397       .  A
C1447      H1458   1.084       .  S
C1448      C1449   1.403       .  A
C1448      H1459   1.084       .  S
C1449      C1450   1.421       .  A
C1449      C1454   1.414       .  A
C1450      C1451   1.414       .  A
C1451      C1452   1.391       .  A
C1451      H1460   1.076       .  S
C1452      C1453   1.401       .  A
C1452      H1461   1.083       .  S
C1453      C1454   1.408       .  A
C1454      H1462   1.084       .  S
C1463      C1464   1.403       .  A
C1463      C1468   1.401       .  A
C1464      C1465   1.405       .  A
C1464      H1477   1.083       .  S
C1465      C1466   1.416       .  A
C1465      H1478   1.078       .  S
C1466      C1472   1.439       .  A
C1466      C1467   1.425       .  A
C1467      C1469   1.398       .  A
C1467      C1468   1.407       .  A
C1468      H1479   1.085       .  S
C1469      C1470   1.388       .  A
C1469      H1480   1.084       .  S
C1470      C1471   1.400       .  A
C1470      H1481   1.084       .  S
C1471      C1472   1.420       .  A
C1471      C1476   1.403       .  A
C1472      C1473   1.421       .  A
C1473      C1474   1.410       .  A
C1473      H1482   1.078       .  S
C1474      C1475   1.403       .  A
C1474      H1483   1.083       .  S
C1475      C1476   1.405       .  A
C1476      H1484   1.085       .  S
C1485      C1486   1.402       .  A
C1485      C1490   1.404       .  A
C1486      C1487   1.399       .  A
C1486      H1499   1.083       .  S
C1487      C1488   1.415       .  A
C1487      H1500   1.077       .  S
C1488      C1494   1.434       .  A
C1488      C1489   1.424       .  A
C1489      C1491   1.400       .  A
C1489      C1490   1.408       .  A
C1490      H1501   1.085       .  S
C1491      C1492   1.390       .  A
C1491      H1502   1.084       .  S
C1492      C1493   1.400       .  A
C1492      H1503   1.084       .  S
C1493      C1494   1.421       .  A
C1493      C1498   1.404       .  A
C1494      C1495   1.418       .  A
C1495      C1496   1.402       .  A
C1495      H1504   1.077       .  S
C1496      C1497   1.399       .  A
C1496      H1505   1.083       .  S
C1497      C1498   1.405       .  A
C1498      H1506   1.085       .  S
C1507      C1508   1.399       .  A
C1507      C1512   1.402       .  A
C1508      C1509   1.392       .  A
C1508      H1521   1.084       .  S
C1509      C1510   1.413       .  A
C1509      H1522   1.077       .  S
C1510      C1516   1.429       .  A
C1510      C1511   1.424       .  A
C1511      C1513   1.400       .  A
C1511      C1512   1.411       .  A
C1512      H1523   1.084       .  S
C1513      C1514   1.393       .  A
C1513      H1524   1.084       .  S
C1514      C1515   1.401       .  A
C1514      H1525   1.084       .  S
C1515      C1516   1.423       .  A
C1515      C1520   1.409       .  A
C1516      C1517   1.415       .  A
C1517      C1518   1.393       .  A
C1517      H1526   1.077       .  S
C1518      C1519   1.397       .  A
C1518      H1527   1.084       .  S
C1519      C1520   1.401       .  A
C1520      H1528   1.085       .  S
C1529      C1530   1.402       .  A
C1529      C1534   1.402       .  A
C1530      C1531   1.405       .  A
C1530      H1543   1.083       .  S
C1531      C1532   1.418       .  A
C1531      H1544   1.078       .  S
C1532      C1538   1.433       .  A
C1532      C1533   1.421       .  A
C1533      C1535   1.398       .  A
C1533      C1534   1.398       .  A
C1534      H1545   1.084       .  S
C1535      C1536   1.385       .  A
C1535      H1546   1.084       .  S
C1536      C1537   1.397       .  A
C1536      H1547   1.084       .  S
C1537      C1538   1.423       .  A
C1537      C1542   1.400       .  A
C1538      C1539   1.417       .  A
C1539      C1540   1.402       .  A
C1539      H1548   1.078       .  S
C1540      C1541   1.401       .  A
C1540      H1549   1.083       .  S
C1541      C1542   1.399       .  A
C1542      H1550   1.085       .  S
C1551      C1552   1.397       .  A
C1551      C1556   1.396       .  A
C1552      C1553   1.396       .  A
C1552      H1565   1.084   1_545  S
C1553      C1554   1.417       .  A
C1553      H1566   1.077   1_545  S
C1554      C1560   1.428       .  A
C1554      C1555   1.423       .  A
C1555      C1557   1.399       .  A
C1555      C1556   1.403       .  A
C1556      H1567   1.085       .  S
C1557      C1558   1.389       .  A
C1557      H1568   1.084       .  S
C1558      C1559   1.399       .  A
C1558      H1569   1.084       .  S
C1559      C1560   1.423       .  A
C1559      C1564   1.404       .  A
C1560      C1561   1.414       .  A
C1561      C1562   1.395       .  A
C1561      H1570   1.077   1_545  S
C1562      C1563   1.402       .  A
C1562      H1571   1.083   1_545  S
C1563      C1564   1.401       .  A
C1564      H1572   1.084       .  S
C1573      C1574   1.402       .  A
C1573      C1578   1.403       .  A
C1574      C1575   1.406       .  A
C1574      H1587   1.083   1_565  S
C1575      C1576   1.419       .  A
C1575      H1588   1.078       .  S
C1576      C1582   1.434       .  A
C1576      C1577   1.421       .  A
C1577      C1579   1.398       .  A
C1577      C1578   1.396       .  A
C1578      H1589   1.084       .  S
C1579      C1580   1.383       .  A
C1579      H1590   1.084       .  S
C1580      C1581   1.397       .  A
C1580      H1591   1.084       .  S
C1581      C1582   1.423       .  A
C1581      C1586   1.397       .  A
C1582      C1583   1.418       .  A
C1583      C1584   1.405       .  A
C1583      H1592   1.078       .  S
C1584      C1585   1.401       .  A
C1584      H1593   1.083       .  S
C1585      C1586   1.399       .  A
C1586      H1594   1.085       .  S
C1595      C1596   1.400       .  A
C1595      C1600   1.404       .  A
C1596      C1597   1.390       .  A
C1596      H1609   1.084       .  S
C1597      C1598   1.412       .  A
C1597      H1610   1.077       .  S
C1598      C1604   1.430       .  A
C1598      C1599   1.423       .  A
C1599      C1601   1.401       .  A
C1599      C1600   1.414       .  A
C1600      H1611   1.084       .  S
C1601      C1602   1.396       .  A
C1601      H1612   1.084       .  S
C1602      C1603   1.402       .  A
C1602      H1613   1.084       .  S
C1603      C1604   1.423       .  A
C1603      C1608   1.413       .  A
C1604      C1605   1.413       .  A
C1605      C1606   1.392       .  A
C1605      H1614   1.077       .  S
C1606      C1607   1.400       .  A
C1606      H1615   1.084       .  S
C1607      C1608   1.404       .  A
C1608      H1616   1.084       .  S
C1617      C1618   1.402       .  A
C1617      C1622   1.407       .  A
C1618      C1619   1.396       .  A
C1618      H1631   1.084       .  S
C1619      C1620   1.415       .  A
C1619      H1632   1.077       .  S
C1620      C1626   1.436       .  A
C1620      C1621   1.423       .  A
C1621      C1623   1.403       .  A
C1621      C1622   1.418       .  A
C1622      H1633   1.084       .  S
C1623      C1624   1.398       .  A
C1623      H1634   1.084       .  S
C1624      C1625   1.402       .  A
C1624      H1635   1.084       .  S
C1625      C1626   1.425       .  A
C1625      C1630   1.421       .  A
C1626      C1627   1.411       .  A
C1627      C1628   1.394       .  A
C1627      H1636   1.077       .  S
C1628      C1629   1.404       .  A
C1628      H1637   1.083       .  S
C1629      C1630   1.408       .  A
C1630      H1638   1.084       .  S
C1639      C1640   1.398       .  A
C1639      C1644   1.408       .  A
C1640      C1641   1.391       .  A
C1640      H1653   1.084       .  S
C1641      C1642   1.414       .  A
C1641      H1654   1.076       .  S
C1642      C1648   1.429       .  A
C1642      C1643   1.422       .  A
C1643      C1645   1.403       .  A
C1643      C1644   1.413       .  A
C1644      H1655   1.084       .  S
C1645      C1646   1.396       .  A
C1645      H1656   1.084       .  S
C1646      C1647   1.402       .  A
C1646      H1657   1.084       .  S
C1647      C1648   1.424       .  A
C1647      C1652   1.414       .  A
C1648      C1649   1.412       .  A
C1649      C1650   1.389       .  A
C1649      H1658   1.076       .  S
C1650      C1651   1.399       .  A
C1650      H1659   1.084       .  S
C1651      C1652   1.403       .  A
C1652      H1660   1.084       .  S
C1661      C1662   1.406       .  A
C1661      C1666   1.402       .  A
C1662      C1663   1.411       .  A
C1662      H1675   1.083       .  S
C1663      C1664   1.419       .  A
C1663      H1676   1.079       .  S
C1664      C1670   1.439       .  A
C1664      C1665   1.422       .  A
C1665      C1667   1.396       .  A
C1665      C1666   1.396       .  A
C1666      H1677   1.085       .  S
C1667      C1668   1.380       .  A
C1667      H1678   1.084       .  S
C1668      C1669   1.396       .  A
C1668      H1679   1.084       .  S
C1669      C1670   1.421       .  A
C1669      C1674   1.395       .  A
C1670      C1671   1.420       .  A
C1671      C1672   1.412       .  A
C1671      H1680   1.079       .  S
C1672      C1673   1.405       .  A
C1672      H1681   1.083       .  S
C1673      C1674   1.402       .  A
C1674      H1682   1.084       .  S
C1683      C1684   1.400       .  A
C1683      C1688   1.402       .  A
C1684      C1685   1.402       .  A
C1684      H1697   1.083       .  S
C1685      C1686   1.418       .  A
C1685      H1698   1.077       .  S
C1686      C1692   1.432       .  A
C1686      C1687   1.421       .  A
C1687      C1689   1.399       .  A
C1687      C1688   1.401       .  A
C1688      H1699   1.085       .  S
C1689      C1690   1.387       .  A
C1689      H1700   1.084       .  S
C1690      C1691   1.398       .  A
C1690      H1701   1.084       .  S
C1691      C1692   1.423       .  A
C1691      C1696   1.402       .  A
C1692      C1693   1.416       .  A
C1693      C1694   1.400       .  A
C1693      H1702   1.078       .  S
C1694      C1695   1.402       .  A
C1694      H1703   1.083       .  S
C1695      C1696   1.400       .  A
C1696      H1704   1.085       .  S
C1705      C1706   1.401   1_655  A
C1705      C1710   1.404       .  A
C1706      C1707   1.397       .  A
C1706      H1719   1.083       .  S
C1707      C1708   1.415   1_455  A
C1707      H1720   1.078       .  S
C1708      C1714   1.431       .  A
C1708      C1709   1.421       .  A
C1709      C1711   1.401       .  A
C1709      C1710   1.408       .  A
C1710      H1721   1.084       .  S
C1711      C1712   1.393       .  A
C1711      H1722   1.084       .  S
C1712      C1713   1.400       .  A
C1712      H1723   1.084       .  S
C1713      C1714   1.424       .  A
C1713      C1718   1.410       .  A
C1714      C1715   1.414   1_655  A
C1715      C1716   1.395   1_455  A
C1715      H1724   1.078       .  S
C1716      C1717   1.399       .  A
C1716      H1725   1.083   1_655  S
C1717      C1718   1.401       .  A
C1718      H1726   1.085       .  S
C1727      C1728   1.403       .  A
C1727      C1732   1.404       .  A
C1728      C1729   1.409       .  A
C1728      H1741   1.083       .  S
C1729      C1730   1.420       .  A
C1729      H1742   1.078       .  S
C1730      C1736   1.438       .  A
C1730      C1731   1.421       .  A
C1731      C1733   1.399       .  A
C1731      C1732   1.401       .  A
C1732      H1743   1.084       .  S
C1733      C1734   1.386       .  A
C1733      H1744   1.084       .  S
C1734      C1735   1.397       .  A
C1734      H1745   1.084       .  S
C1735      C1736   1.424       .  A
C1735      C1740   1.403       .  A
C1736      C1737   1.418       .  A
C1737      C1738   1.407       .  A
C1737      H1746   1.078       .  S
C1738      C1739   1.403       .  A
C1738      H1747   1.083       .  S
C1739      C1740   1.400       .  A
C1740      H1748   1.085       .  S
C1749      C1750   1.402       .  A
C1749      C1754   1.405       .  A
C1750      C1751   1.407       .  A
C1750      H1763   1.083       .  S
C1751      C1752   1.419       .  A
C1751      H1764   1.078       .  S
C1752      C1758   1.437       .  A
C1752      C1753   1.422       .  A
C1753      C1755   1.399       .  A
C1753      C1754   1.403       .  A
C1754      H1765   1.085       .  S
C1755      C1756   1.387       .  A
C1755      H1766   1.084       .  S
C1756      C1757   1.398       .  A
C1756      H1767   1.084       .  S
C1757      C1758   1.423       .  A
C1757      C1762   1.404       .  A
C1758      C1759   1.418       .  A
C1759      C1760   1.406       .  A
C1759      H1768   1.078       .  S
C1760      C1761   1.402       .  A
C1760      H1769   1.083       .  S
C1761      C1762   1.402       .  A
C1762      H1770   1.085       .  S
C1771      C1772   1.403       .  A
C1771      C1776   1.399       .  A
C1772      C1773   1.408       .  A
C1772      H1785   1.083       .  S
C1773      C1774   1.419       .  A
C1773      H1786   1.078       .  S
C1774      C1780   1.438       .  A
C1774      C1775   1.423       .  A
C1775      C1777   1.397       .  A
C1775      C1776   1.401       .  A
C1776      H1787   1.085       .  S
C1777      C1778   1.385       .  A
C1777      H1788   1.084       .  S
C1778      C1779   1.398       .  A
C1778      H1789   1.084       .  S
C1779      C1780   1.422       .  A
C1779      C1784   1.402       .  A
C1780      C1781   1.418       .  A
C1781      C1782   1.408       .  A
C1781      H1790   1.078       .  S
C1782      C1783   1.404       .  A
C1782      H1791   1.083       .  S
C1783      C1784   1.403       .  A
C1784      H1792   1.084       .  S
C1793      C1794   1.402       .  A
C1793      C1798   1.406       .  A
C1794      C1795   1.397       .  A
C1794      H1807   1.084       .  S
C1795      C1796   1.415       .  A
C1795      H1808   1.077       .  S
C1796      C1802   1.433       .  A
C1796      C1797   1.422       .  A
C1797      C1799   1.402       .  A
C1797      C1798   1.414       .  A
C1798      H1809   1.084       .  S
C1799      C1800   1.396       .  A
C1799      H1810   1.084       .  S
C1800      C1801   1.401       .  A
C1800      H1811   1.084       .  S
C1801      C1802   1.424       .  A
C1801      C1806   1.415       .  A
C1802      C1803   1.412       .  A
C1803      C1804   1.394       .  A
C1803      H1812   1.077       .  S
C1804      C1805   1.403       .  A
C1804      H1813   1.084       .  S
C1805      C1806   1.404       .  A
C1806      H1814   1.084       .  S
C1815      C1816   1.399       .  A
C1815      C1820   1.400       .  A
C1816      C1817   1.395       .  A
C1816      H1829   1.084       .  S
C1817      C1818   1.414       .  A
C1817      H1830   1.078       .  S
C1818      C1824   1.428       .  A
C1818      C1819   1.423       .  A
C1819      C1821   1.400       .  A
C1819      C1820   1.407       .  A
C1820      H1831   1.085       .  S
C1821      C1822   1.392       .  A
C1821      H1832   1.084       .  S
C1822      C1823   1.401       .  A
C1822      H1833   1.084       .  S
C1823      C1824   1.421       .  A
C1823      C1828   1.405       .  A
C1824      C1825   1.414       .  A
C1825      C1826   1.396       .  A
C1825      H1834   1.078       .  S
C1826      C1827   1.400       .  A
C1826      H1835   1.083       .  S
C1827      C1828   1.405       .  A
C1828      H1836   1.085       .  S
C1837      C1838   1.400       .  A
C1837      C1842   1.398       .  A
C1838      C1839   1.404       .  A
C1838      H1851   1.083       .  S
C1839      C1840   1.418       .  A
C1839      H1852   1.078       .  S
C1840      C1846   1.433       .  A
C1840      C1841   1.423       .  A
C1841      C1843   1.397       .  A
C1841      C1842   1.398       .  A
C1842      H1853   1.086       .  S
C1843      C1844   1.384       .  A
C1843      H1854   1.084       .  S
C1844      C1845   1.397       .  A
C1844      H1855   1.084       .  S
C1845      C1846   1.422       .  A
C1845      C1850   1.398       .  A
C1846      C1847   1.418       .  A
C1847      C1848   1.405       .  A
C1847      H1856   1.078       .  S
C1848      C1849   1.402       .  A
C1848      H1857   1.083       .  S
C1849      C1850   1.399       .  A
C1850      H1858   1.085       .  S
C1859      C1860   1.401       .  A
C1859      C1864   1.402       .  A
C1860      C1861   1.401       .  A
C1860      H1873   1.083       .  S
C1861      C1862   1.417       .  A
C1861      H1874   1.077       .  S
C1862      C1868   1.432       .  A
C1862      C1863   1.421       .  A
C1863      C1865   1.398       .  A
C1863      C1864   1.400       .  A
C1864      H1875   1.085       .  S
C1865      C1866   1.386       .  A
C1865      H1876   1.084       .  S
C1866      C1867   1.398       .  A
C1866      H1877   1.084       .  S
C1867      C1868   1.423       .  A
C1867      C1872   1.402       .  A
C1868      C1869   1.416       .  A
C1869      C1870   1.401       .  A
C1869      H1878   1.078       .  S
C1870      C1871   1.401       .  A
C1870      H1879   1.083       .  S
C1871      C1872   1.399       .  A
C1872      H1880   1.085       .  S
C1881      C1882   1.401   1_655  A
C1881      C1886   1.403       .  A
C1882      C1883   1.396       .  A
C1882      H1895   1.083       .  S
C1883      C1884   1.414   1_455  A
C1883      H1896   1.078       .  S
C1884      C1890   1.428       .  A
C1884      C1885   1.422       .  A
C1885      C1887   1.400       .  A
C1885      C1886   1.405       .  A
C1886      H1897   1.085       .  S
C1887      C1888   1.391       .  A
C1887      H1898   1.084       .  S
C1888      C1889   1.400       .  A
C1888      H1899   1.084       .  S
C1889      C1890   1.422       .  A
C1889      C1894   1.404       .  A
C1890      C1891   1.416       .  A
C1891      C1892   1.398       .  A
C1891      H1900   1.078   1_655  S
C1892      C1893   1.397       .  A
C1892      H1901   1.084   1_655  S
C1893      C1894   1.400       .  A
C1894      H1902   1.085       .  S
C1903      C1904   1.401       .  A
C1903      C1908   1.402       .  A
C1904      C1905   1.391       .  A
C1904      H1917   1.084       .  S
C1905      C1906   1.411       .  A
C1905      H1918   1.077       .  S
C1906      C1912   1.427       .  A
C1906      C1907   1.423       .  A
C1907      C1909   1.400       .  A
C1907      C1908   1.407       .  A
C1908      H1919   1.084   1_565  S
C1909      C1910   1.391       .  A
C1909      H1920   1.084       .  S
C1910      C1911   1.401       .  A
C1910      H1921   1.084       .  S
C1911      C1912   1.421       .  A
C1911      C1916   1.405       .  A
C1912      C1913   1.415       .  A
C1913      C1914   1.395       .  A
C1913      H1922   1.077       .  S
C1914      C1915   1.400       .  A
C1914      H1923   1.084       .  S
C1915      C1916   1.403       .  A
C1916      H1924   1.084       .  S
C1925      C1926   1.399       .  A
C1925      C1930   1.401       .  A
C1926      C1927   1.388       .  A
C1926      H1939   1.084       .  S
C1927      C1928   1.411       .  A
C1927      H1940   1.076       .  S
C1928      C1934   1.425       .  A
C1928      C1929   1.423       .  A
C1929      C1931   1.400       .  A
C1929      C1930   1.408       .  A
C1930      H1941   1.084       .  S
C1931      C1932   1.392       .  A
C1931      H1942   1.084       .  S
C1932      C1933   1.401       .  A
C1932      H1943   1.084       .  S
C1933      C1934   1.422       .  A
C1933      C1938   1.405       .  A
C1934      C1935   1.415       .  A
C1935      C1936   1.390       .  A
C1935      H1944   1.076       .  S
C1936      C1937   1.395       .  A
C1936      H1945   1.084       .  S
C1937      C1938   1.402       .  A
C1938      H1946   1.085       .  S
C1947      C1948   1.397       .  A
C1947      C1952   1.398       .  A
C1948      C1949   1.394       .  A
C1948      H1961   1.084       .  S
C1949      C1950   1.415       .  A
C1949      H1962   1.077       .  S
C1950      C1956   1.426       .  A
C1950      C1951   1.423       .  A
C1951      C1953   1.398       .  A
C1951      C1952   1.402       .  A
C1952      H1963   1.085       .  S
C1953      C1954   1.388       .  A
C1953      H1964   1.084       .  S
C1954      C1955   1.399       .  A
C1954      H1965   1.084       .  S
C1955      C1956   1.422       .  A
C1955      C1960   1.400       .  A
C1956      C1957   1.415       .  A
C1957      C1958   1.394       .  A
C1957      H1966   1.077       .  S
C1958      C1959   1.399       .  A
C1958      H1967   1.083       .  S
C1959      C1960   1.401       .  A
C1960      H1968   1.085       .  S
C1969      C1970   1.401       .  A
C1969      C1974   1.403       .  A
C1970      C1971   1.405       .  A
C1970      H1983   1.083       .  S
C1971      C1972   1.420       .  A
C1971      H1984   1.078       .  S
C1972      C1978   1.432       .  A
C1972      C1973   1.419       .  A
C1973      C1975   1.398       .  A
C1973      C1974   1.395       .  A
C1974      H1985   1.084       .  S
C1975      C1976   1.383       .  A
C1975      H1986   1.084       .  S
C1976      C1977   1.396       .  A
C1976      H1987   1.084       .  S
C1977      C1978   1.424       .  A
C1977      C1982   1.399       .  A
C1978      C1979   1.414       .  A
C1979      C1980   1.400       .  A
C1979      H1988   1.078       .  S
C1980      C1981   1.404       .  A
C1980      H1989   1.083       .  S
C1981      C1982   1.399       .  A
C1982      H1990   1.085       .  S
C1991      C1992   1.400       .  A
C1991      C1996   1.406       .  A
C1992      C1993   1.388       .  A
C1992      H2005   1.084       .  S
C1993      C1994   1.411       .  A
C1993      H2006   1.076       .  S
C1994      C2000   1.429       .  A
C1994      C1995   1.423       .  A
C1995      C1997   1.402       .  A
C1995      C1996   1.415       .  A
C1996      H2007   1.084       .  S
C1997      C1998   1.397       .  A
C1997      H2008   1.084       .  S
C1998      C1999   1.403       .  A
C1998      H2009   1.084       .  S
C1999      C2000   1.422       .  A
C1999      C2004   1.415       .  A
C2000      C2001   1.414       .  A
C2001      C2002   1.390       .  A
C2001      H2010   1.076       .  S
C2002      C2003   1.398       .  A
C2002      H2011   1.084       .  S
C2003      C2004   1.405       .  A
C2004      H2012   1.084       .  S
C2013      C2014   1.395   1_655  A
C2013      C2018   1.397       .  A
C2014      C2015   1.394       .  A
C2014      H2027   1.084       .  S
C2015      C2016   1.414   1_455  A
C2015      H2028   1.077       .  S
C2016      C2022   1.427       .  A
C2016      C2017   1.424       .  A
C2017      C2019   1.399       .  A
C2017      C2018   1.405       .  A
C2018      H2029   1.085       .  S
C2019      C2020   1.390       .  A
C2019      H2030   1.084       .  S
C2020      C2021   1.400       .  A
C2020      H2031   1.084       .  S
C2021      C2022   1.420       .  A
C2021      C2026   1.403       .  A
C2022      C2023   1.415   1_655  A
C2023      C2024   1.396       .  A
C2023      H2032   1.078       .  S
C2024      C2025   1.400   1_455  A
C2024      H2033   1.083       .  S
C2025      C2026   1.404       .  A
C2026      H2034   1.084       .  S
C2035      C2036   1.404       .  A
C2035      C2040   1.405       .  A
C2036      C2037   1.409       .  A
C2036      H2049   1.083       .  S
C2037      C2038   1.419       .  A
C2037      H2050   1.078       .  S
C2038      C2044   1.438       .  A
C2038      C2039   1.421       .  A
C2039      C2041   1.399       .  A
C2039      C2040   1.401       .  A
C2040      H2051   1.084       .  S
C2041      C2042   1.385       .  A
C2041      H2052   1.084       .  S
C2042      C2043   1.397       .  A
C2042      H2053   1.084       .  S
C2043      C2044   1.423       .  A
C2043      C2048   1.401       .  A
C2044      C2045   1.418       .  A
C2045      C2046   1.407       .  A
C2045      H2054   1.078       .  S
C2046      C2047   1.404       .  A
C2046      H2055   1.083       .  S
C2047      C2048   1.401       .  A
C2048      H2056   1.085       .  S
C2057      C2058   1.404       .  A
C2057      C2062   1.404       .  A
C2058      C2059   1.410       .  A
C2058      H2071   1.083       .  S
C2059      C2060   1.420       .  A
C2059      H2072   1.078       .  S
C2060      C2066   1.439       .  A
C2060      C2061   1.421       .  A
C2061      C2063   1.398       .  A
C2061      C2062   1.400       .  A
C2062      H2073   1.084       .  S
C2063      C2064   1.384       .  A
C2063      H2074   1.084       .  S
C2064      C2065   1.397       .  A
C2064      H2075   1.084       .  S
C2065      C2066   1.423       .  A
C2065      C2070   1.400       .  A
C2066      C2067   1.419       .  A
C2067      C2068   1.409       .  A
C2067      H2076   1.078       .  S
C2068      C2069   1.404       .  A
C2068      H2077   1.083       .  S
C2069      C2070   1.402       .  A
C2070      H2078   1.085       .  S
C2079      C2080   1.401       .  A
C2079      C2084   1.402       .  A
C2080      C2081   1.398       .  A
C2080      H2093   1.083   1_655  S
C2081      C2082   1.414       .  A
C2081      H2094   1.078   1_655  S
C2082      C2088   1.431       .  A
C2082      C2083   1.423       .  A
C2083      C2085   1.399       .  A
C2083      C2084   1.405       .  A
C2084      H2095   1.085       .  S
C2085      C2086   1.390       .  A
C2085      H2096   1.084       .  S
C2086      C2087   1.400       .  A
C2086      H2097   1.084       .  S
C2087      C2088   1.421       .  A
C2087      C2092   1.403       .  A
C2088      C2089   1.417       .  A
C2089      C2090   1.401       .  A
C2089      H2098   1.078   1_655  S
C2090      C2091   1.398       .  A
C2090      H2099   1.083   1_655  S
C2091      C2092   1.402       .  A
C2092      H2100   1.085       .  S
C2101      C2102   1.403       .  A
C2101      C2106   1.403       .  A
C2102      C2103   1.407       .  A
C2102      H2115   1.083   1_565  S
C2103      C2104   1.419       .  A
C2103      H2116   1.078       .  S
C2104      C2110   1.435       .  A
C2104      C2105   1.421       .  A
C2105      C2107   1.398       .  A
C2105      C2106   1.397       .  A
C2106      H2117   1.084       .  S
C2107      C2108   1.384       .  A
C2107      H2118   1.084       .  S
C2108      C2109   1.397       .  A
C2108      H2119   1.084       .  S
C2109      C2110   1.423       .  A
C2109      C2114   1.398       .  A
C2110      C2111   1.418       .  A
C2111      C2112   1.406       .  A
C2111      H2120   1.078       .  S
C2112      C2113   1.403       .  A
C2112      H2121   1.083       .  S
C2113      C2114   1.399       .  A
C2114      H2122   1.085       .  S
C2123      C2124   1.401       .  A
C2123      C2128   1.405       .  A
C2124      C2125   1.405       .  A
C2124      H2137   1.083       .  S
C2125      C2126   1.420       .  A
C2125      H2138   1.078       .  S
C2126      C2132   1.433       .  A
C2126      C2127   1.419       .  A
C2127      C2129   1.400       .  A
C2127      C2128   1.400       .  A
C2128      H2139   1.084       .  S
C2129      C2130   1.388       .  A
C2129      H2140   1.084       .  S
C2130      C2131   1.398       .  A
C2130      H2141   1.084       .  S
C2131      C2132   1.425       .  A
C2131      C2136   1.406       .  A
C2132      C2133   1.413       .  A
C2133      C2134   1.399       .  A
C2133      H2142   1.078       .  S
C2134      C2135   1.405       .  A
C2134      H2143   1.083       .  S
C2135      C2136   1.401       .  A
C2136      H2144   1.085       .  S
C2145      C2146   1.399       .  A
C2145      C2150   1.400       .  A
C2146      C2147   1.393       .  A
C2146      H2159   1.084       .  S
C2147      C2148   1.414       .  A
C2147      H2160   1.077       .  S
C2148      C2154   1.427       .  A
C2148      C2149   1.423       .  A
C2149      C2151   1.399       .  A
C2149      C2150   1.404       .  A
C2150      H2161   1.085       .  S
C2151      C2152   1.390       .  A
C2151      H2162   1.084   1_545  S
C2152      C2153   1.399       .  A
C2152      H2163   1.084   1_545  S
C2153      C2154   1.422       .  A
C2153      C2158   1.402       .  A
C2154      C2155   1.416       .  A
C2155      C2156   1.394       .  A
C2155      H2164   1.077       .  S
C2156      C2157   1.397       .  A
C2156      H2165   1.084       .  S
C2157      C2158   1.399       .  A
C2158      H2166   1.085       .  S
C2167      C2168   1.403       .  A
C2167      C2172   1.401       .  A
C2168      C2169   1.389       .  A
C2168      H2181   1.083       .  S
C2169      C2170   1.410       .  A
C2169      H2182   1.077       .  S
C2170      C2176   1.428       .  A
C2170      C2171   1.424       .  A
C2171      C2173   1.399       .  A
C2171      C2172   1.411       .  A
C2172      H2183   1.084       .  S
C2173      C2174   1.393       .  A
C2173      H2184   1.084       .  S
C2174      C2175   1.401       .  A
C2174      H2185   1.084       .  S
C2175      C2176   1.421       .  A
C2175      C2180   1.407       .  A
C2176      C2177   1.416       .  A
C2177      C2178   1.394       .  A
C2177      H2186   1.077       .  S
C2178      C2179   1.401       .  A
C2178      H2187   1.084       .  S
C2179      C2180   1.404       .  A
C2180      H2188   1.084       .  S
C2189      C2190   1.403       .  A
C2189      C2194   1.399       .  A
C2190      C2191   1.405       .  A
C2190      H2203   1.083       .  S
C2191      C2192   1.418       .  A
C2191      H2204   1.078       .  S
C2192      C2198   1.432       .  A
C2192      C2193   1.422       .  A
C2193      C2195   1.397       .  A
C2193      C2194   1.396       .  A
C2194      H2205   1.085       .  S
C2195      C2196   1.383       .  A
C2195      H2206   1.084       .  S
C2196      C2197   1.396       .  A
C2196      H2207   1.084       .  S
C2197      C2198   1.423       .  A
C2197      C2202   1.397       .  A
C2198      C2199   1.418       .  A
C2199      C2200   1.404       .  A
C2199      H2208   1.078       .  S
C2200      C2201   1.401       .  A
C2200      H2209   1.083       .  S
C2201      C2202   1.397       .  A
C2202      H2210   1.086       .  S
C2211      C2212   1.396       .  A
C2211      C2216   1.401   1_554  A
C2212      C2213   1.391       .  A
C2212      H2225   1.084       .  S
C2213      C2214   1.415       .  A
C2213      H2226   1.077       .  S
C2214      C2220   1.424       .  A
C2214      C2215   1.421   1_554  A
C2215      C2217   1.401       .  A
C2215      C2216   1.405       .  A
C2216      H2227   1.085       .  S
C2217      C2218   1.392       .  A
C2217      H2228   1.084       .  S
C2218      C2219   1.400       .  A
C2218      H2229   1.084       .  S
C2219      C2220   1.423   1_556  A
C2219      C2224   1.408       .  A
C2220      C2221   1.411       .  A
C2221      C2222   1.388       .  A
C2221      H2230   1.077       .  S
C2222      C2223   1.399       .  A
C2222      H2231   1.083       .  S
C2223      C2224   1.402   1_554  A
C2224      H2232   1.085       .  S
C2233      C2234   1.402       .  A
C2233      C2238   1.400       .  A
C2234      C2235   1.402       .  A
C2234      H2247   1.083       .  S
C2235      C2236   1.416       .  A
C2235      H2248   1.078       .  S
C2236      C2242   1.434       .  A
C2236      C2237   1.424       .  A
C2237      C2239   1.397       .  A
C2237      C2238   1.401       .  A
C2238      H2249   1.085       .  S
C2239      C2240   1.385       .  A
C2239      H2250   1.084       .  S
C2240      C2241   1.399       .  A
C2240      H2251   1.084       .  S
C2241      C2242   1.421       .  A
C2241      C2246   1.399       .  A
C2242      C2243   1.419       .  A
C2243      C2244   1.405       .  A
C2243      H2252   1.078       .  S
C2244      C2245   1.400       .  A
C2244      H2253   1.083       .  S
C2245      C2246   1.403       .  A
C2246      H2254   1.085       .  S
C2255      C2256   1.404       .  A
C2255      C2260   1.402       .  A
C2256      C2257   1.410       .  A
C2256      H2269   1.083       .  S
C2257      C2258   1.420       .  A
C2257      H2270   1.079       .  S
C2258      C2264   1.437       .  A
C2258      C2259   1.421       .  A
C2259      C2261   1.397       .  A
C2259      C2260   1.397       .  A
C2260      H2271   1.084       .  S
C2261      C2262   1.382       .  A
C2261      H2272   1.084       .  S
C2262      C2263   1.396       .  A
C2262      H2273   1.084       .  S
C2263      C2264   1.423       .  A
C2263      C2268   1.398       .  A
C2264      C2265   1.419       .  A
C2265      C2266   1.409       .  A
C2265      H2274   1.079       .  S
C2266      C2267   1.405       .  A
C2266      H2275   1.083       .  S
C2267      C2268   1.400       .  A
C2268      H2276   1.085       .  S
C2277      C2278   1.396       .  A
C2277      C2282   1.399   1_554  A
C2278      C2279   1.396       .  A
C2278      H2291   1.084       .  S
C2279      C2280   1.417       .  A
C2279      H2292   1.077       .  S
C2280      C2286   1.428       .  A
C2280      C2281   1.422   1_554  A
C2281      C2283   1.399       .  A
C2281      C2282   1.401       .  A
C2282      H2293   1.085       .  S
C2283      C2284   1.389       .  A
C2283      H2294   1.084       .  S
C2284      C2285   1.399       .  A
C2284      H2295   1.084       .  S
C2285      C2286   1.423   1_556  A
C2285      C2290   1.404       .  A
C2286      C2287   1.415       .  A
C2287      C2288   1.395       .  A
C2287      H2296   1.077       .  S
C2288      C2289   1.399       .  A
C2288      H2297   1.083       .  S
C2289      C2290   1.399   1_554  A
C2290      H2298   1.085       .  S
C2299      C2300   1.402       .  A
C2299      C2304   1.407       .  A
C2300      C2301   1.394       .  A
C2300      H2313   1.084       .  S
C2301      C2302   1.413       .  A
C2301      H2314   1.078       .  S
C2302      C2308   1.429       .  A
C2302      C2303   1.421       .  A
C2303      C2305   1.403       .  A
C2303      C2304   1.413       .  A
C2304      H2315   1.084       .  S
C2305      C2306   1.396       .  A
C2305      H2316   1.084       .  S
C2306      C2307   1.401       .  A
C2306      H2317   1.084       .  S
C2307      C2308   1.422       .  A
C2307      C2312   1.413       .  A
C2308      C2309   1.411       .  A
C2309      C2310   1.391       .  A
C2309      H2318   1.078       .  S
C2310      C2311   1.402       .  A
C2310      H2319   1.084       .  S
C2311      C2312   1.405       .  A
C2312      H2320   1.084       .  S
C2321      C2322   1.399       .  A
C2321      C2326   1.400       .  A
C2322      C2323   1.400       .  A
C2322      H2335   1.083       .  S
C2323      C2324   1.417       .  A
C2323      H2336   1.077       .  S
C2324      C2330   1.432       .  A
C2324      C2325   1.423       .  A
C2325      C2327   1.399       .  A
C2325      C2326   1.402       .  A
C2326      H2337   1.085       .  S
C2327      C2328   1.388       .  A
C2327      H2338   1.084       .  S
C2328      C2329   1.399       .  A
C2328      H2339   1.084       .  S
C2329      C2330   1.422       .  A
C2329      C2334   1.403       .  A
C2330      C2331   1.416       .  A
C2331      C2332   1.400       .  A
C2331      H2340   1.077       .  S
C2332      C2333   1.400       .  A
C2332      H2341   1.083       .  S
C2333      C2334   1.404       .  A
C2334      H2342   1.085       .  S
C2343      C2344   1.401   1_556  A
C2343      C2348   1.401       .  A
C2344      C2345   1.394       .  A
C2344      H2357   1.083       .  S
C2345      C2346   1.414   1_554  A
C2345      H2358   1.077       .  S
C2346      C2352   1.428       .  A
C2346      C2347   1.422       .  A
C2347      C2349   1.399       .  A
C2347      C2348   1.404       .  A
C2348      H2359   1.084       .  S
C2349      C2350   1.389       .  A
C2349      H2360   1.084       .  S
C2350      C2351   1.399       .  A
C2350      H2361   1.084       .  S
C2351      C2352   1.423       .  A
C2351      C2356   1.404       .  A
C2352      C2353   1.415   1_556  A
C2353      C2354   1.394       .  A
C2353      H2362   1.077       .  S
C2354      C2355   1.398   1_554  A
C2354      H2363   1.084       .  S
C2355      C2356   1.399       .  A
C2356      H2364   1.085       .  S
